@<TRIPOS>MOLECULE
molecule
   60    63     1     0     0
SMALL
bcc


@<TRIPOS>ATOM
      1 N3           0.0000     0.0000     0.0000 nu         1 AXH      -0.896900
      2 C4           1.3790     0.0000     0.0000 ca         1 AXH       0.754200
      3 C5           2.1050     0.0000     1.2150 ca         1 AXH      -0.325600
      4 C6           1.4660    -0.0000     2.4610 ca         1 AXH      -0.168000
      5 C7           2.2130    -0.0010     3.6040 ca         1 AXH       0.109100
      6 C10          3.6130    -0.0000     3.5460 ca         1 AXH       0.163100
      7 C13          4.2660     0.0010     2.3330 ca         1 AXH      -0.271300
      8 C21         -4.3710    -1.3710    -0.3110 cc         1 AXH      -0.054100
      9 C22         -3.9710    -1.8620    -1.4980 cd         1 AXH      -0.045000
     10 C24         -4.8040    -2.7840    -2.3080 ca         1 AXH      -0.002000
     11 C26         -5.9110    -3.3190    -4.3700 ca         1 AXH      -0.126000
     12 C28         -6.0300    -4.8380    -2.5170 ca         1 AXH      -0.125000
     13 C12          5.7570     0.0010     4.5720 c3         1 AXH       0.124700
     14 O11          4.3340    -0.0000     4.6970 os         1 AXH      -0.309900
     15 O8           1.5910    -0.0020     4.8140 os         1 AXH      -0.313900
     16 C9           0.1610    -0.0020     4.8080 c3         1 AXH       0.126700
     17 C14          3.5210     0.0010     1.1480 ca         1 AXH       0.491600
     18 N15          4.1090     0.0010    -0.0590 nb         1 AXH      -0.780000
     19 C16          3.3840     0.0020    -1.1520 ca         1 AXH       0.732300
     20 C18          4.0900     0.0020    -2.4830 c3         1 AXH      -0.122400
     21 N17          2.0600    -0.0040    -1.1380 nb         1 AXH      -0.836000
     22 C2          -0.7320    -0.0070    -1.2690 c3         1 AXH       0.321800
     23 C1          -0.8790     1.4290    -1.7800 c3         1 AXH      -0.107100
     24 C19         -2.0980    -0.6070    -1.0580 cc         1 AXH      -0.044400
     25 C23         -2.7080    -1.4320    -1.9050 cd         1 AXH      -0.118000
     26 S20         -3.1250    -0.3150     0.3390 ss         1 AXH      -0.188800
     27 C25         -5.1350    -2.4580    -3.6210 ca         1 AXH      -0.117000
     28 C27         -6.3600    -4.5060    -3.8190 ca         1 AXH      -0.127000
     29 C29         -5.2550    -3.9830    -1.7590 ca         1 AXH      -0.079300
     30 C30         -4.8960    -4.3470    -0.3410 c3         1 AXH       0.200100
     31 N31         -3.4830    -4.7470    -0.2810 n7         1 AXH      -0.810200
     32 C32         -3.1270    -5.2180     1.0640 c3         1 AXH       0.146100
     33 H1          -0.5010     0.0060     0.8670 hn         1 AXH       0.449800
     34 H2           0.3840    -0.0010     2.5170 ha         1 AXH       0.136000
     35 H3           5.3490     0.0010     2.2970 ha         1 AXH       0.162000
     36 H4          -5.3180    -1.5890     0.1680 h4         1 AXH       0.174000
     37 H5          -6.1700    -3.0650    -5.3910 ha         1 AXH       0.132000
     38 H6          -6.3820    -5.7690    -2.0910 ha         1 AXH       0.130000
     39 H7           6.0720     0.8870     4.0340 h1         1 AXH       0.045367
     40 H8           6.0720    -0.8820     4.0290 h1         1 AXH       0.045367
     41 H9           6.2070    -0.0020     5.5580 h1         1 AXH       0.045367
     42 H10         -0.2040    -0.0020     5.8280 h1         1 AXH       0.040700
     43 H11         -0.1980    -0.8860     4.2950 h1         1 AXH       0.040700
     44 H12         -0.1980     0.8830     4.2960 h1         1 AXH       0.040700
     45 H13          3.6580    -0.7600    -3.1210 hc         1 AXH       0.057367
     46 H14          3.9760     0.9720    -2.9520 hc         1 AXH       0.057367
     47 H15          5.1420    -0.2060    -2.3340 hc         1 AXH       0.057367
     48 H16         -0.1880    -0.5950    -1.9970 h1         1 AXH       0.096700
     49 H17         -1.9300     1.6790    -1.8580 hc         1 AXH       0.047367
     50 H18         -0.3960     2.1090    -1.0900 hc         1 AXH       0.047367
     51 H19         -0.4150     1.5140    -2.7560 hc         1 AXH       0.047367
     52 H20         -2.2580    -1.7470    -2.8390 ha         1 AXH       0.157000
     53 H21         -4.7840    -1.5290    -4.0540 ha         1 AXH       0.136000
     54 H22         -6.9680    -5.1790    -4.4100 ha         1 AXH       0.130000
     55 H23         -5.0570    -3.4910     0.3030 h1         1 AXH       0.038700
     56 H24         -5.5180    -5.1700    -0.0100 h1         1 AXH       0.038700
     57 H25         -3.3140    -5.4750    -0.9460 hn         1 AXH       0.356800
     58 H27         -3.3920    -4.4630     1.7930 h1         1 AXH       0.030367
     59 H28         -2.0610    -5.4070     1.1100 h1         1 AXH       0.030367
     60 H29         -3.6650    -6.1340     1.2800 h1         1 AXH       0.030367
@<TRIPOS>BOND
     1    23    22 1
     2    22    24 1
     3    22     1 1
     4    27    11 ar
     5    27    10 ar
     6    24    25 2
     7    24    26 1
     8    25     9 1
     9    11    28 ar
    10     1     2 1
    11    26     8 1
    12     9    10 1
    13     9     8 2
    14    10    29 ar
    15    21     2 ar
    16    21    19 ar
    17     2     3 ar
    18    28    12 ar
    19    20    19 1
    20    19    18 ar
    21     3     4 ar
    22     3    17 ar
    23    29    12 ar
    24    29    30 1
    25     4     5 ar
    26    16    15 1
    27    18    17 ar
    28    17     7 ar
    29     5    15 1
    30     5     6 ar
    31    30    31 1
    32     7     6 ar
    33     6    14 1
    34    31    32 1
    35    14    13 1
    36     1    33 1
    37     4    34 1
    38     7    35 1
    39     8    36 1
    40    11    37 1
    41    12    38 1
    42    13    39 1
    43    13    40 1
    44    13    41 1
    45    16    42 1
    46    16    43 1
    47    16    44 1
    48    20    45 1
    49    20    46 1
    50    20    47 1
    51    22    48 1
    52    23    49 1
    53    23    50 1
    54    23    51 1
    55    25    52 1
    56    27    53 1
    57    28    54 1
    58    30    55 1
    59    30    56 1
    60    31    57 1
    61    32    58 1
    62    32    59 1
    63    32    60 1
@<TRIPOS>SUBSTRUCTURE
     1 AXH         1 TEMP              0 ****  ****    0 ROOT
