@<TRIPOS>MOLECULE
AXI
   46    51     1     0     0
SMALL
bcc


@<TRIPOS>ATOM
      1 O81          0.0000     0.0000     0.0000 o          1 AXI      -0.376000
      2 C80          1.2160     0.0000     0.0000 c2         1 AXI       0.260000
      3 N82          1.8890     0.0000     1.1680 ns         1 AXI      -0.011000
      4 C88          1.1560     0.0020     2.4360 c3         1 AXI      -0.067000
      5 C23          1.9540    -0.0080    -1.2760 ca         1 AXI      -0.123000
      6 C22          3.3510    -0.0090    -1.2810 ca         1 AXI      -0.073000
      7 C21          4.0350    -0.0160    -2.4770 ca         1 AXI      -0.121000
      8 C20          3.3430    -0.0220    -3.6790 ca         1 AXI      -0.061000
      9 C18          1.2560    -0.0210    -2.4960 ca         1 AXI      -0.101000
     10 C19          1.9640    -0.0210    -3.6910 ca         1 AXI      -0.136000
     11 S24         -0.5050    -0.0290    -2.5070 ss         1 AXI       0.238000
     12 C07         -0.8900     0.1290    -4.2200 ca         1 AXI      -0.217000
     13 C08         -1.1340    -1.0260    -4.9760 ca         1 AXI      -0.102000
     14 C09         -1.4350    -0.9590    -6.2980 ca         1 AXI      -0.034000
     15 C12         -0.9480     1.3730    -4.7780 ca         1 AXI      -0.018000
     16 C11         -1.2570     1.5060    -6.1490 ca         1 AXI      -0.014000
     17 N15         -1.3880     2.5360    -6.9690 n2         1 AXI      -0.235000
     18 N14         -1.7080     2.0730    -8.2500 n7         1 AXI       0.342000
     19 C13         -1.7820     0.7160    -8.2410 c3         1 AXI      -0.187000
     20 C10         -1.5050     0.2910    -6.9340 ca         1 AXI      -0.200000
     21 C16         -2.0850    -0.1160    -9.3500 c2         1 AXI       0.113000
     22 C17         -2.3320     0.4330   -10.5590 c2         1 AXI      -0.193000
     23 C02         -2.6450    -0.4300   -11.7070 c3         1 AXI       0.128000
     24 N03         -2.6830    -1.7510   -11.5510 n2         1 AXI      -0.134000
     25 C04         -2.9610    -2.5560   -12.5560 c2         1 AXI      -0.009000
     26 C05         -3.2230    -2.0540   -13.8170 c2         1 AXI      -0.210000
     27 C06         -3.1930    -0.6810   -14.0260 c2         1 AXI      -0.022000
     28 C01         -2.9070     0.1440   -12.9560 c2         1 AXI      -0.226000
     29 H82          2.8900     0.0010     1.1690 hn         1 AXI       0.088000
     30 H881         0.5320    -0.8820     2.4940 h1         1 AXI       0.048667
     31 H882         1.8600     0.0010     3.2600 h1         1 AXI       0.048667
     32 H883         0.5350     0.8870     2.4930 h1         1 AXI       0.048667
     33 H22          3.8970    -0.0040    -0.3450 ha         1 AXI       0.101000
     34 H21          5.1180    -0.0160    -2.4780 ha         1 AXI       0.105000
     35 H20          3.8890    -0.0240    -4.6140 ha         1 AXI       0.103000
     36 H19          1.4320    -0.0290    -4.6350 ha         1 AXI       0.129000
     37 H08         -1.0820    -1.9950    -4.4930 ha         1 AXI       0.122000
     38 H12         -0.8930     2.2530    -4.1480 ha         1 AXI       0.130000
     39 H09         -1.6190    -1.8670    -6.8600 ha         1 AXI       0.107000
     40 H14         -1.8600     2.6530    -9.0510 hn         1 AXI       0.110000
     41 H16         -2.8220     0.4410    -8.7830 DU         1 AXI       0.099000
     42 H17         -3.2970    -0.0270   -10.7330 DU         1 AXI       0.077000
     43 H01         -2.8750     1.2190   -13.0850 ha         1 AXI       0.126000
     44 H04         -2.9830    -3.6270   -12.3920 h4         1 AXI       0.118000
     45 H05         -3.4480    -2.7260   -14.6360 ha         1 AXI       0.117000
     46 H06         -3.3980    -0.2660   -15.0060 ha         1 AXI       0.107000
@<TRIPOS>BOND
     1     1     2 1   
     2     2     3 1   
     3     2     5 1   
     4     3     4 1   
     5     3    29 1   
     6     4    30 1   
     7     4    31 1   
     8     4    32 1   
     9     5     6 1   
    10     5     9 1   
    11     6     7 1   
    12     6    33 1   
    13     7     8 1   
    14     7    34 1   
    15     8    10 1   
    16     8    35 1   
    17     9    10 1   
    18     9    11 1   
    19    10    36 1   
    20    11    12 1   
    21    12    13 1   
    22    12    15 1   
    23    13    14 1   
    24    13    37 1   
    25    14    20 1   
    26    14    39 1   
    27    15    16 1   
    28    15    38 1   
    29    16    17 1   
    30    16    20 1   
    31    17    18 1   
    32    18    19 1   
    33    18    40 1   
    34    19    20 1   
    35    19    21 1   
    36    19    41 1   
    37    21    22 1   
    38    21    41 1   
    39    22    23 1   
    40    22    42 1   
    41    23    24 1   
    42    23    28 1   
    43    23    42 1   
    44    24    25 1   
    45    25    26 1   
    46    25    44 1   
    47    26    27 1   
    48    26    45 1   
    49    27    28 1   
    50    27    46 1   
    51    28    43 1   
@<TRIPOS>SUBSTRUCTURE
     1 AXI         1 TEMP              0 ****  ****    0 ROOT
