@<TRIPOS>MOLECULE
molecule
   46    49     1     0     0
SMALL
bcc


@<TRIPOS>ATOM
      1 O81          0.0000     0.0000     0.0000 o          1 AXI      -0.594100
      2 C80          1.2160     0.0000     0.0000 c          1 AXI       0.671700
      3 N82          1.8890     0.0000     1.1680 ns         1 AXI      -0.585900
      4 C88          1.1560     0.0020     2.4360 c3         1 AXI       0.104300
      5 C23          1.9540    -0.0080    -1.2760 ca         1 AXI      -0.151600
      6 C22          3.3510    -0.0090    -1.2810 ca         1 AXI      -0.089000
      7 C21          4.0350    -0.0160    -2.4770 ca         1 AXI      -0.154000
      8 C20          3.3430    -0.0220    -3.6790 ca         1 AXI      -0.088000
      9 C18          1.2560    -0.0210    -2.4960 ca         1 AXI       0.067900
     10 C19          1.9640    -0.0210    -3.6910 ca         1 AXI      -0.151000
     11 S24         -0.5050    -0.0290    -2.5070 ss         1 AXI      -0.071800
     12 C07         -0.8900     0.1290    -4.2200 ca         1 AXI      -0.038100
     13 C08         -1.1340    -1.0260    -4.9760 ca         1 AXI      -0.124000
     14 C09         -1.4350    -0.9590    -6.2980 ca         1 AXI      -0.076000
     15 C12         -0.9480     1.3730    -4.7780 ca         1 AXI      -0.043000
     16 C11         -1.2570     1.5060    -6.1490 ca         1 AXI      -0.056000
     17 N15         -1.3880     2.5360    -6.9690 nc         1 AXI      -0.252400
     18 N14         -1.7080     2.0730    -8.2500 na         1 AXI       0.022800
     19 C13         -1.7820     0.7160    -8.2410 cc         1 AXI      -0.045100
     20 C10         -1.5050     0.2910    -6.9340 ca         1 AXI      -0.147000
     21 C16         -2.0850    -0.1160    -9.3500 ce         1 AXI      -0.066000
     22 C17         -2.3320     0.4330   -10.5590 cf         1 AXI      -0.244800
     23 C02         -2.6450    -0.4300   -11.7070 ca         1 AXI       0.473100
     24 N03         -2.6830    -1.7510   -11.5510 nb         1 AXI      -0.693000
     25 C04         -2.9610    -2.5560   -12.5560 ca         1 AXI       0.426200
     26 C05         -3.2230    -2.0540   -13.8170 ca         1 AXI      -0.254300
     27 C06         -3.1930    -0.6810   -14.0260 ca         1 AXI      -0.090000
     28 C01         -2.9070     0.1440   -12.9560 ca         1 AXI      -0.238300
     29 H82          2.8900     0.0010     1.1690 hn         1 AXI       0.313500
     30 H881         0.5320    -0.8820     2.4940 h1         1 AXI       0.042367
     31 H882         0.5340     0.8870     2.4930 h1         1 AXI       0.042367
     32 H883         1.8600     0.0020     3.2600 h1         1 AXI       0.042367
     33 H22          3.8970    -0.0040    -0.3450 ha         1 AXI       0.124000
     34 H21          5.1180    -0.0160    -2.4780 ha         1 AXI       0.131000
     35 H20          3.8890    -0.0240    -4.6140 ha         1 AXI       0.133000
     36 H19          1.4320    -0.0290    -4.6350 ha         1 AXI       0.150000
     37 H08         -1.0820    -1.9950    -4.4930 ha         1 AXI       0.143000
     38 H12         -0.8930     2.2530    -4.1480 ha         1 AXI       0.156000
     39 H09         -1.6190    -1.8670    -6.8600 ha         1 AXI       0.133000
     40 H14         -1.8600     2.6530    -9.0510 hn         1 AXI       0.333700
     41 H16         -2.1170    -1.1920    -9.2260 ha         1 AXI       0.176000
     42 H17         -2.2990     1.5080   -10.6820 ha         1 AXI       0.122000
     43 H01         -2.8750     1.2190   -13.0850 ha         1 AXI       0.139000
     44 H04         -2.9830    -3.6270   -12.3920 h4         1 AXI       0.025100
     45 H05         -3.4480    -2.7260   -14.6360 ha         1 AXI       0.140000
     46 H06         -3.3980    -0.2660   -15.0060 ha         1 AXI       0.140000
@<TRIPOS>BOND
     1     1     2 2
     2     2     3 1
     3     2     5 1
     4     3     4 1
     5     5     6 ar
     6     5     9 ar
     7     6     7 ar
     8     7     8 ar
     9     8    10 ar
    10     9    10 ar
    11     9    11 1
    12    11    12 1
    13    12    13 ar
    14    12    15 ar
    15    13    14 ar
    16    14    20 ar
    17    15    16 ar
    18    16    17 2
    19    16    20 ar
    20    17    18 1
    21    18    19 1
    22    19    20 2
    23    19    21 1
    24    21    22 2
    25    22    23 1
    26    23    24 ar
    27    23    28 ar
    28    24    25 ar
    29    25    26 ar
    30    26    27 ar
    31    27    28 ar
    32     3    29 1
    33     4    30 1
    34     4    31 1
    35     4    32 1
    36     6    33 1
    37     7    34 1
    38     8    35 1
    39    10    36 1
    40    13    37 1
    41    15    38 1
    42    14    39 1
    43    18    40 1
    44    21    41 1
    45    22    42 1
    46    28    43 1
    47    25    44 1
    48    26    45 1
    49    27    46 1
@<TRIPOS>SUBSTRUCTURE
     1 AXI         1 TEMP              0 ****  ****    0 ROOT
