@<TRIPOS>MOLECULE
molecule
   42    44     1     0     0
SMALL
bcc


@<TRIPOS>ATOM
      1 N1           0.0000     0.0000     0.0000 n3         1 AXJ      -0.701600
      2 C4          -0.7940     2.1530    -3.9540 c3         1 AXJ      -0.026200
      3 C5          -1.1230     1.6760    -2.5600 c2         1 AXJ      -0.158200
      4 C6          -0.2350     1.8120    -1.6020 c2         1 AXJ      -0.105400
      5 C7           1.0960     2.4460    -1.9650 cy         1 AXJ      -0.047500
      6 C8           0.8970     3.6870    -2.8560 cy         1 AXJ      -0.095400
      7 C10          1.4780     0.0000     0.0000 c3         1 AXJ       0.151800
      8 C13         -0.4700    -0.5720     1.2750 c3         1 AXJ       0.162500
      9 C2           1.6350     1.7660    -3.2460 cy         1 AXJ      -0.079000
     10 C3           0.6480     2.6770    -3.9950 cy         1 AXJ      -0.085700
     11 C9          -0.5280     1.3570    -0.1950 c3         1 AXJ       0.203000
     12 C11          1.8740     0.0000     1.4980 c3         1 AXJ      -0.117400
     13 C12          0.7820    -0.9160     2.1100 c3         1 AXJ      -0.095400
     14 C14         -1.2840    -1.8400     1.0100 c3         1 AXJ       0.155400
     15 O1          -0.4360    -2.8400     0.4420 oh         1 AXJ      -0.599800
     16 H2          -0.8990     1.3300    -4.6510 hc         1 AXJ       0.051700
     17 H3          -1.4740     2.9490    -4.2320 hc         1 AXJ       0.051700
     18 H4          -2.0390     1.1280    -2.3770 ha         1 AXJ       0.130000
     19 H5           1.8200     2.5600    -1.1680 hc         1 AXJ       0.064700
     20 H6           0.0200     4.2670    -2.5960 hc         1 AXJ       0.055700
     21 H7           1.8010     4.2700    -2.9890 hc         1 AXJ       0.055700
     22 H8           1.8540    -0.8910    -0.4880 h1         1 AXJ       0.063200
     23 H9           1.8540     0.8910    -0.4880 h1         1 AXJ       0.063200
     24 H10         -1.0740     0.1560     1.8030 h1         1 AXJ       0.045700
     25 H11          0.3480     0.0860    -2.8610 hc         1 AXJ       0.039533
     26 H12          1.2390    -0.0140    -4.3870 hc         1 AXJ       0.039533
     27 H13          2.0740    -0.3030    -2.8540 hc         1 AXJ       0.039533
     28 H14          3.4100     2.9500    -2.9850 hc         1 AXJ       0.039533
     29 H15          3.2370     2.2430    -4.5980 hc         1 AXJ       0.039533
     30 H16          3.7160     1.2250    -3.2330 hc         1 AXJ       0.039533
     31 H17          0.9980     3.0100    -4.9640 hc         1 AXJ       0.059700
     32 H18         -0.0570     2.0320     0.5090 h1         1 AXJ       0.036200
     33 H19         -1.5990     1.3540    -0.0310 h1         1 AXJ       0.036200
     34 H20          2.8590    -0.4290     1.6360 hc         1 AXJ       0.046700
     35 H21          1.8160     0.9990     1.9120 hc         1 AXJ       0.046700
     36 H22          1.0470    -1.9600     1.9880 hc         1 AXJ       0.056700
     37 H23          0.6230    -0.6740     3.1540 hc         1 AXJ       0.056700
     38 H24         -2.0880    -1.6140     0.3200 h1         1 AXJ       0.021700
     39 H25         -1.6980    -2.2040     1.9420 h1         1 AXJ       0.021700
     40 H26         -0.8820    -3.6700     0.4470 ho         1 AXJ       0.395000
     41 C15          1.3000     0.2750    -3.3440 c3         1 AXJ      -0.078100
     42 C1           3.1070     2.0680    -3.5370 c3         1 AXJ      -0.078100
@<TRIPOS>BOND
     1    12     7 1
     2    12    13 1
     3     7     1 1
     4    13     8 1
     5     1     8 1
     6     1    11 1
     7    15    14 1
     8     8    14 1
     9    11     4 1
    10     4     3 2
    11     4     5 1
    12     3     2 1
    13     5     6 1
    14     5     9 1
    15     2    10 1
    16     6    10 1
    17    41     9 1
    18     9    10 1
    19     9    42 1
    20     2    16 1
    21     2    17 1
    22     3    18 1
    23     5    19 1
    24     6    20 1
    25     6    21 1
    26     7    22 1
    27     7    23 1
    28     8    24 1
    29    41    25 1
    30    41    26 1
    31    41    27 1
    32    42    28 1
    33    42    29 1
    34    42    30 1
    35    10    31 1
    36    11    32 1
    37    11    33 1
    38    12    34 1
    39    12    35 1
    40    13    36 1
    41    13    37 1
    42    14    38 1
    43    14    39 1
    44    15    40 1
@<TRIPOS>SUBSTRUCTURE
     1 AXJ         1 TEMP              0 ****  ****    0 ROOT
