@<TRIPOS>MOLECULE
molecule
   43    45     1     0     0
SMALL
bcc


@<TRIPOS>ATOM
      1 C2           0.0000     0.0000     0.0000 ca         1 AXK      -0.112000
      2 C4          -0.0090     0.0070     2.3980 ca         1 AXK      -0.112000
      3 C5           1.3800     0.0000     0.0000 ca         1 AXK      -0.121000
      4 C6           2.0740     0.0000     1.2080 cp         1 AXK      -0.131000
      5 C8           3.5590     0.0010     1.2130 cp         1 AXK       0.037000
      6 C9           6.3270     0.0010     1.2240 ca         1 AXK      -0.142000
      7 C10          5.6330     0.0070     2.4210 ca         1 AXK      -0.113300
      8 C11          4.2620     0.0000     0.0110 ca         1 AXK      -0.134000
      9 C12          5.6430     0.0000     0.0230 ca         1 AXK      -0.135000
     10 C1          -0.6930     0.0070     1.1970 ca         1 AXK       0.030700
     11 C3           1.3710     0.0010     2.4100 ca         1 AXK      -0.121000
     12 C7           4.2540     0.0060     2.4220 ca         1 AXK      -0.133000
     13 C13         -2.2010     0.0130     1.1900 c3         1 AXK       0.056200
     14 P14         -2.8000     1.7360     1.1830 p5         1 AXK       0.999700
     15 O15         -2.2550     2.4880    -0.1320 o          1 AXK      -0.885500
     16 O16         -4.4100     1.7440     1.1770 o          1 AXK      -0.885500
     17 O17         -2.3080     2.4350     2.3910 o          1 AXK      -0.885500
     18 O18         -2.6840    -0.6540     2.3580 oh         1 AXK      -0.593800
     19 C19          6.3860     0.0130     3.7270 c3         1 AXK       0.244700
     20 O20          7.5800    -0.7600     3.5920 oh         1 AXK      -0.606800
     21 C21          6.7430     1.4310     4.0930 ca         1 AXK      -0.074300
     22 C22          7.4050     4.0280     4.7750 ca         1 AXK       0.029400
     23 C23          6.3090     3.4180     5.3580 ca         1 AXK      -0.112000
     24 C24          5.9820     2.1180     5.0200 ca         1 AXK      -0.104000
     25 C25          7.8350     2.0420     3.5060 ca         1 AXK      -0.083000
     26 C26          8.1680     3.3400     3.8470 ca         1 AXK       0.024400
     27 Cl7          9.5430     4.1050     3.1140 cl         1 AXK      -0.112400
     28 Cl8          7.8170     5.6610     5.1970 cl         1 AXK      -0.110400
     29 H1          -0.5410    -0.0000    -0.9390 ha         1 AXK       0.149500
     30 H2          -0.5580     0.0100     3.3330 ha         1 AXK       0.149500
     31 H3           1.9230    -0.0050    -0.9380 ha         1 AXK       0.096000
     32 H4           7.4100     0.0020     1.2280 ha         1 AXK       0.119000
     33 H5           3.7270    -0.0010    -0.9310 ha         1 AXK       0.140000
     34 H6           6.1920    -0.0020    -0.9110 ha         1 AXK       0.111000
     35 H7           1.9060     0.0010     3.3520 ha         1 AXK       0.096000
     36 H8           3.7110     0.0100     3.3600 ha         1 AXK       0.135000
     37 H9          -2.5610    -0.4980     0.3060 h1         1 AXK       0.024700
     38 H12         -3.3060    -1.3170     2.1060 ho         1 AXK       0.363000
     39 H13          5.7640    -0.4150     4.5040 h1         1 AXK       0.043700
     40 H14          7.5710    -1.4630     4.2200 ho         1 AXK       0.397000
     41 H15          5.7130     3.9560     6.0840 ha         1 AXK       0.150000
     42 H16          5.1230     1.6400     5.4770 ha         1 AXK       0.148000
     43 H17          8.4320     1.5030     2.7800 ha         1 AXK       0.161000
@<TRIPOS>BOND
     1    27    26 1
     2    28    22 1
     3    26    22 ar
     4    26    25 ar
     5    22    23 ar
     6    25    21 ar
     7    23    24 ar
     8    21    24 ar
     9    21    19 1
    10    20    19 1
    11    19     7 1
    12     7    12 ar
    13     7     6 ar
    14    12     5 ar
    15     6     9 ar
    16    11     2 ar
    17    11     4 ar
    18    18    13 1
    19     2    10 ar
    20     5     4 1
    21     5     8 ar
    22     4     3 ar
    23     9     8 ar
    24    10    13 1
    25    10     1 ar
    26    13    14 1
    27    17    14 1
    28     3     1 ar
    29    14    15 1
    30    14    16 1
    31     1    29 1
    32     2    30 1
    33     3    31 1
    34     6    32 1
    35     8    33 1
    36     9    34 1
    37    11    35 1
    38    12    36 1
    39    13    37 1
    40    18    38 1
    41    19    39 1
    42    20    40 1
    43    23    41 1
    44    24    42 1
    45    25    43 1
@<TRIPOS>SUBSTRUCTURE
     1 AXK         1 TEMP              0 ****  ****    0 ROOT
