@<TRIPOS>MOLECULE
molecule
   46    47     1     0     0
SMALL
bcc


@<TRIPOS>ATOM
      1 C1           0.0000     0.0000     0.0000 c          1 AXL       0.602900
      2 O1          -0.6040     0.9050    -0.5230 o          1 AXL      -0.557100
      3 C2           1.5070     0.0000     0.0000 c3         1 AXL       0.006700
      4 C3           2.0160     0.0000     1.4430 c3         1 AXL       0.275600
      5 S4           1.3930     1.4650     2.3680 ss         1 AXL      -0.475200
      6 C5           1.4540     0.6490     4.0120 c3         1 AXL       0.123100
      7 C51          0.1940     0.9690     4.8200 c3         1 AXL      -0.080600
      8 C52          2.7060     1.0780     4.7790 c3         1 AXL      -0.080600
      9 C6           1.5120    -0.8510     3.6670 c3         1 AXL       0.040500
     10 C61          2.8150    -1.4160     4.1690 c          1 AXL       0.866600
     11 O62          2.9540    -1.7340     5.4650 o          1 AXL      -0.830800
     12 O63          3.7370    -1.5820     3.4040 o          1 AXL      -0.830800
     13 N7           1.4070    -1.1090     2.2270 n7         1 AXL      -0.813200
     14 N8           1.9940     1.1970    -0.6910 ns         1 AXL      -0.500900
     15 C9           2.1230     1.1950    -2.0310 c          1 AXL       0.650100
     16 O91          1.8350     0.2030    -2.6670 o          1 AXL      -0.622100
     17 C10          2.6260     2.4260    -2.7420 c3         1 AXL       0.089800
     18 N11          2.2370     2.3670    -4.1570 nz         1 AXL      -0.798600
     19 C12          4.1270     2.4900    -2.6360 ca         1 AXL      -0.182300
     20 C13          4.7180     3.3140    -1.6950 ca         1 AXL      -0.092500
     21 C14          6.0950     3.3740    -1.5960 ca         1 AXL      -0.134000
     22 C15          6.8840     2.6080    -2.4400 ca         1 AXL       0.156100
     23 C16          6.2890     1.7820    -3.3830 ca         1 AXL      -0.134000
     24 C17          4.9110     1.7210    -3.4740 ca         1 AXL      -0.092500
     25 O18          8.2390     2.6650    -2.3440 oh         1 AXL      -0.503100
     26 HC1         -0.5410    -0.8260     0.4460 h4         1 AXL       0.047200
     27 HC2          1.8680    -0.8840    -0.5110 h1         1 AXL       0.107700
     28 HC3          3.0980    -0.0490     1.4820 h2         1 AXL       0.098700
     29 H511         0.2450     0.4740     5.7820 hc         1 AXL       0.050700
     30 H512         0.1230     2.0400     4.9680 hc         1 AXL       0.050700
     31 H513        -0.6790     0.6200     4.2810 hc         1 AXL       0.050700
     32 H521         2.6870     2.1500     4.9300 hc         1 AXL       0.050700
     33 H522         2.7300     0.5780     5.7400 hc         1 AXL       0.050700
     34 H523         3.5880     0.8090     4.2100 hc         1 AXL       0.050700
     35 HC6          0.6930    -1.3540     4.1690 h1         1 AXL       0.091700
     36 HN7          1.8700    -1.9680     2.0070 hn         1 AXL       0.383800
     37 HN8          2.2050     2.0250    -0.1690 hn         1 AXL       0.343500
     38 H10          2.1930     3.3080    -2.2850 hx         1 AXL       0.121700
     39 H111         2.8350     2.9660    -4.6920 hn         1 AXL       0.459800
     40 H112         2.3230     1.4270    -4.4880 hn         1 AXL       0.459800
     41 H13          4.1010     3.9120    -1.0350 ha         1 AXL       0.136500
     42 H14          6.5570     4.0190    -0.8590 ha         1 AXL       0.166000
     43 H16          6.9030     1.1810    -4.0420 ha         1 AXL       0.166000
     44 H17          4.4460     1.0760    -4.2100 ha         1 AXL       0.136500
     45 H18O         8.5690     3.3180    -2.9390 ho         1 AXL       0.433000
     46 H113         1.2850     2.6610    -4.2540 hn         1 AXL       0.459800
@<TRIPOS>BOND
     1     1     2 2
     2     1     3 1
     3     1    26 1
     4     3     4 1
     5     3    14 1
     6     3    27 1
     7     4     5 1
     8     4    13 1
     9     4    28 1
    10     5     6 1
    11     6     7 1
    12     6     8 1
    13     6     9 1
    14     7    29 1
    15     7    30 1
    16     7    31 1
    17     8    32 1
    18     8    33 1
    19     8    34 1
    20     9    10 1
    21     9    13 1
    22     9    35 1
    23    10    11 1
    24    10    12 1
    25    13    36 1
    26    14    15 1
    27    14    37 1
    28    15    16 2
    29    15    17 1
    30    17    18 1
    31    17    19 1
    32    17    38 1
    33    18    39 1
    34    18    40 1
    35    19    20 ar
    36    19    24 ar
    37    20    21 ar
    38    20    41 1
    39    21    22 ar
    40    21    42 1
    41    22    23 ar
    42    22    25 1
    43    23    24 ar
    44    23    43 1
    45    24    44 1
    46    25    45 1
    47    46    18 1
@<TRIPOS>SUBSTRUCTURE
     1 AXL         1 TEMP              0 ****  ****    0 ROOT
