@<TRIPOS>MOLECULE
AXM
   34    36     1     0     0
SMALL
bcc


@<TRIPOS>ATOM
      1 O28          0.0000     0.0000     0.0000 o          1 AXM      -0.615100
      2 C27          1.2130     0.0000     0.0000 c          1 AXM       0.573100
      3 N29          1.8870     0.0000     1.1670 ns         1 AXM      -0.061400
      4 O30          1.1790    -0.0010     2.3930 oh         1 AXM      -0.439100
      5 C26          1.9660    -0.0050    -1.3050 c3         1 AXM      -0.086400
      6 C5           0.9710    -0.0100    -2.4680 c3         1 AXM      -0.030000
      7 C4           0.0910     1.2380    -2.3920 c3         1 AXM      -0.036067
      8 C3          -0.9030     1.2330    -3.5550 c3         1 AXM      -0.033700
      9 C9           1.7360    -0.0170    -3.7930 c3         1 AXM      -0.036067
     10 C1           0.7420    -0.0220    -4.9560 c3         1 AXM      -0.033700
     11 C8          -0.1380    -1.2700    -4.8690 c3         1 AXM      -0.017400
     12 C2          -0.1380     1.2270    -4.8800 c3         1 AXM      -0.017400
     13 C6           0.0920    -1.2600    -2.3810 c3         1 AXM      -0.036067
     14 C7          -0.9020    -1.2650    -3.5440 c3         1 AXM      -0.033700
     15 C10         -1.7820    -0.0160    -3.4680 c3         1 AXM      -0.017400
     16 H1           2.8880     0.0310     1.1670 hn         1 AXM       0.154500
     17 H2           1.7890    -0.0770     3.1080 ho         1 AXM       0.392000
     18 H3           2.5890    -0.8900    -1.3590 hc         1 AXM       0.028700
     19 H4           2.5880     0.8790    -1.3670 hc         1 AXM       0.028700
     20 H5           0.7140     2.1230    -2.4530 hc         1 AXM       0.029033
     21 H6          -0.4500     1.2420    -1.4540 hc         1 AXM       0.029033
     22 H7          -1.5260     2.1170    -3.5010 hc         1 AXM       0.021033
     23 H8           2.3590     0.8670    -3.8550 hc         1 AXM       0.029033
     24 H9           2.3590    -0.9020    -3.8470 hc         1 AXM       0.029033
     25 H10          1.2840    -0.0260    -5.8940 hc         1 AXM       0.021033
     26 H11          0.4850    -2.1550    -4.9230 hc         1 AXM       0.014200
     27 H12         -0.8420    -1.2740    -5.6920 hc         1 AXM       0.014200
     28 H13         -0.8430     1.2240    -5.7030 hc         1 AXM       0.014200
     29 H14          0.4840     2.1120    -4.9410 hc         1 AXM       0.014200
     30 H15          0.7160    -2.1440    -2.4350 hc         1 AXM       0.029033
     31 H16         -0.4490    -1.2560    -1.4430 hc         1 AXM       0.029033
     32 H17         -1.5250    -2.1500    -3.4830 hc         1 AXM       0.021033
     33 H18         -2.3230    -0.0120    -2.5300 hc         1 AXM       0.014200
     34 H19         -2.4860    -0.0190    -4.2910 hc         1 AXM       0.014200
@<TRIPOS>BOND
     1     1     2 2   
     2     2     3 1   
     3     2     5 1   
     4     3     4 1   
     5     3    16 1   
     6     4    17 1   
     7     5     6 1   
     8     5    18 1   
     9     5    19 1   
    10     6     7 1   
    11     6     9 1   
    12     6    13 1   
    13     7     8 1   
    14     7    20 1   
    15     7    21 1   
    16     8    12 1   
    17     8    15 1   
    18     8    22 1   
    19     9    10 1   
    20     9    23 1   
    21     9    24 1   
    22    10    11 1   
    23    10    12 1   
    24    10    25 1   
    25    11    14 1   
    26    11    26 1   
    27    11    27 1   
    28    12    28 1   
    29    12    29 1   
    30    13    14 1   
    31    13    30 1   
    32    13    31 1   
    33    14    15 1   
    34    14    32 1   
    35    15    33 1   
    36    15    34 1   
@<TRIPOS>SUBSTRUCTURE
     1 AXM         1 TEMP              0 ****  ****    0 ROOT
