@<TRIPOS>MOLECULE
molecule
   63    66     1     0     0
SMALL
bcc


@<TRIPOS>ATOM
      1 CAA          0.0000     0.0000     0.0000 c3         1 AXN      -0.104600
      2 CAB          2.0400     0.0000     1.4420 c3         1 AXN      -0.104600
      3 CAC         -1.8750    -5.7140    -8.7650 c3         1 AXN       0.094300
      4 CAD         -6.6620    -2.8080    -7.2450 c3         1 AXN       0.091300
      5 CAI          2.4820    -0.5960    -3.0960 ca         1 AXN      -0.142000
      6 CAJ          0.4360    -1.7280    -2.5820 ca         1 AXN      -0.142000
      7 CAK          2.1200    -0.5450    -4.4290 ca         1 AXN      -0.040000
      8 CAL          0.0760    -1.6830    -3.9150 ca         1 AXN      -0.040000
      9 CAM         -1.7850    -2.8630    -8.2450 ca         1 AXN      -0.031000
     10 CAN         -4.1160    -1.4390    -7.6270 ca         1 AXN      -0.219000
     11 CAO         10.9260    -0.7000    -7.1310 c3         1 AXN      -0.105400
     12 CAP         10.2650    -1.7400    -6.6600 c3         1 AXN      -0.105400
     13 CAQ          9.9980    -0.0810    -8.2460 c3         1 AXN       0.068800
     14 CAR          9.2990    -2.2480    -7.8890 c3         1 AXN       0.068800
     15 CAS          2.0400    -1.2490    -0.7210 c3         1 AXN      -0.322100
     16 CAU          1.6420    -1.1890    -2.1730 ca         1 AXN      -0.029300
     17 CAV         -1.7360    -1.4780    -8.0880 ca         1 AXN       0.066600
     18 CAW          0.9160    -1.0890    -4.8390 ca         1 AXN      -0.263500
     19 CAX         -2.9040    -0.7640    -7.7780 ca         1 AXN      -0.004400
     20 CAY         -4.2840    -5.7230    -8.1100 c          1 AXN       0.649500
     21 CAZ         -5.5260    -4.9680    -7.7810 c          1 AXN       0.650500
     22 CBA         -2.9990    -3.5410    -8.0940 ca         1 AXN      -0.062400
     23 CBB         -4.1680    -2.8270    -7.7840 ca         1 AXN       0.132600
     24 CBC          1.5300     0.0000     0.0000 c3         1 AXN      -0.125700
     25 NAT         -1.1560    -1.4630    -6.7580 nu         1 AXN      -0.727500
     26 NBD          8.8830    -1.1440    -8.5030 nh         1 AXN      -0.399000
     27 NBE         -3.0460    -5.0200    -8.2630 n          1 AXN      -0.416000
     28 NBF         -5.4680    -3.5440    -7.6210 n          1 AXN      -0.417000
     29 OAE         -4.3200    -6.8990    -8.2450 o          1 AXN      -0.546500
     30 OAF         -6.5550    -5.5400    -7.6530 o          1 AXN      -0.537500
     31 OAG          0.7520     0.3050    -7.1080 o          1 AXN      -0.599800
     32 OAH          1.3690    -1.8590    -7.3530 o          1 AXN      -0.599800
     33 SBG          0.4820    -1.0190    -6.5450 sy         1 AXN       1.202200
     34 H1          -0.3610     0.0420    -1.0200 hc         1 AXN       0.055533
     35 H2          -0.3610     0.8630     0.5470 hc         1 AXN       0.055533
     36 H3          -0.3610    -0.9050     0.4740 hc         1 AXN       0.055533
     37 H4           3.1200     0.0850     1.4430 hc         1 AXN       0.055533
     38 H5           1.7500    -0.9240     1.9280 hc         1 AXN       0.055533
     39 H6           1.6120     0.8390     1.9770 hc         1 AXN       0.055533
     40 H7          -1.1350    -5.7910    -7.9770 h1         1 AXN       0.049367
     41 H8          -1.4580    -5.1620    -9.5990 h1         1 AXN       0.049367
     42 H9          -2.1570    -6.7070    -9.0930 h1         1 AXN       0.049367
     43 H10         -6.4840    -2.2830    -6.3140 h1         1 AXN       0.052033
     44 H11         -7.4870    -3.4980    -7.1180 h1         1 AXN       0.052033
     45 H12         -6.9050    -2.0930    -8.0210 h1         1 AXN       0.052033
     46 H13          3.4250    -0.1700    -2.7740 ha         1 AXN       0.136000
     47 H14         -0.2230    -2.1930    -1.8580 ha         1 AXN       0.136000
     48 H15          2.7790    -0.0790    -5.1520 ha         1 AXN       0.137500
     49 H16         -0.8690    -2.1050    -4.2360 ha         1 AXN       0.137500
     50 H17         -0.8830    -3.4130    -8.4840 ha         1 AXN       0.160000
     51 H18         -5.0180    -0.8870    -7.3880 ha         1 AXN       0.145000
     52 H19         11.0950     0.0230    -6.3430 hc         1 AXN       0.064200
     53 H20         11.8660    -1.0200    -7.5640 hc         1 AXN       0.064200
     54 H21         10.9570    -2.5260    -6.3810 hc         1 AXN       0.064200
     55 H22          9.6630    -1.4450    -5.8100 hc         1 AXN       0.064200
     56 H23         10.5660     0.0890    -9.1520 h1         1 AXN       0.112700
     57 H24          9.5580     0.8440    -7.8930 h1         1 AXN       0.112700
     58 H25          8.4520    -2.7960    -7.4940 h1         1 AXN       0.112700
     59 H26          9.8640    -2.8660    -8.5760 h1         1 AXN       0.112700
     60 H27          1.3520    -1.8910    -0.1840 hc         1 AXN       0.170200
     61 H28          2.0100    -0.2530    -0.2970 hc         1 AXN       0.170200
     62 H29          1.8910     0.8850    -0.5110 hc         1 AXN       0.082700
     63 H30         -1.7250    -1.6700    -5.9620 hn         1 AXN       0.438800
@<TRIPOS>BOND
     1    11    12 1
     2    11    13 1
     3    12    14 1
     4    13    26 1
     5    14    26 1
     6    26    19 1
     7    19    10 ar
     8    19    17 ar
     9    10    23 ar
    10     4    28 1
    11    25    17 1
    12    25    33 1
    13    17     9 ar
    14    31    33 2
    15    23    28 1
    16    23    22 ar
    17    28    21 1
    18     7     5 ar
    19     7    18 ar
    20    33    18 1
    21    33    32 2
    22     5    16 ar
    23     9    22 ar
    24    22    27 1
    25    18     8 ar
    26    21    30 2
    27    21    20 1
    28    27    20 1
    29    27     3 1
    30    16    15 1
    31    16     6 ar
    32    20    29 2
    33     8     6 ar
    34     1    24 1
    35    15    24 1
    36    24     2 1
    37     1    34 1
    38     1    35 1
    39     1    36 1
    40     2    37 1
    41     2    38 1
    42     2    39 1
    43     3    40 1
    44     3    41 1
    45     3    42 1
    46     4    43 1
    47     4    44 1
    48     4    45 1
    49     5    46 1
    50     6    47 1
    51     7    48 1
    52     8    49 1
    53     9    50 1
    54    10    51 1
    55    11    52 1
    56    11    53 1
    57    12    54 1
    58    12    55 1
    59    13    56 1
    60    13    57 1
    61    14    58 1
    62    14    59 1
    63    15    60 1
    64    15    61 1
    65    24    62 1
    66    25    63 1
@<TRIPOS>SUBSTRUCTURE
     1 AXN         1 TEMP              0 ****  ****    0 ROOT
