@<TRIPOS>MOLECULE
AXO
    9     9     1     0     0
SMALL
bcc


@<TRIPOS>ATOM
      1 C1           0.0000     0.0000     0.0000 c2         1 AXO      -0.434000
      2 C2           1.5070     0.0000     0.0000 DU         1 AXO      -0.166000
      3 N           -0.6400     0.0000     1.1080 n2         1 AXO       0.092000
      4 O1          -2.0560     0.0060     1.1090 oh         1 AXO      -0.230000
      5 H1           0.6100    -0.8770     0.1810 DU         1 AXO       0.327000
      6 H3           1.8680    -0.6580    -0.7810 ha         1 AXO       0.069000
      7 H4           1.8680    -0.3480     0.9600 ha         1 AXO       0.069000
      8 H5           1.8680     1.0060    -0.1790 ha         1 AXO       0.069000
      9 H7          -2.3690     0.1260     1.9900 ho         1 AXO       0.204000
@<TRIPOS>BOND
     1     1     2 1   
     2     1     3 1   
     3     1     5 1   
     4     2     5 1   
     5     2     6 1   
     6     2     7 1   
     7     2     8 1   
     8     3     4 1   
     9     4     9 1   
@<TRIPOS>SUBSTRUCTURE
     1 AXO         1 TEMP              0 ****  ****    0 ROOT
