@<TRIPOS>MOLECULE
molecule
    9     8     1     0     0
SMALL
bcc


@<TRIPOS>ATOM
      1 C1           0.0000     0.0000     0.0000 c2         1 AXO       0.379200
      2 C2           1.5070     0.0000     0.0000 c3         1 AXO      -0.123400
      3 N           -0.6400     0.0000     1.1080 n2         1 AXO      -0.448200
      4 O1          -2.0560     0.0060     1.1090 oh         1 AXO      -0.394500
      5 H1          -0.5420     0.0040    -0.9380 h4         1 AXO      -0.004200
      6 H3           1.8680    -0.8830     0.5130 hc         1 AXO       0.054367
      7 H4           1.8680     0.8860     0.5080 hc         1 AXO       0.054367
      8 H5           1.8680    -0.0030    -1.0210 hc         1 AXO       0.054367
      9 H7          -2.3700     0.0030     1.9980 ho         1 AXO       0.429000
@<TRIPOS>BOND
     1     2     1 1
     2     3     1 2
     3     3     4 1
     4     1     5 1
     5     2     6 1
     6     2     7 1
     7     2     8 1
     8     4     9 1
@<TRIPOS>SUBSTRUCTURE
     1 AXO         1 TEMP              0 ****  ****    0 ROOT
