@<TRIPOS>MOLECULE
AXS
   31    32     1     0     0
SMALL
bcc


@<TRIPOS>ATOM
      1 N1           0.0000     0.0000     0.0000 n7         1 AXS      -0.566200
      2 C4           2.6610    -1.1980    -3.3750 ca         1 AXS      -0.134000
      3 C5           2.2010    -1.1980    -2.0720 ca         1 AXS      -0.060000
      4 C6           1.9710     0.0010    -1.4210 ca         1 AXS      -0.107300
      5 C7           1.4690     0.0000     0.0000 c3         1 AXS       0.203100
      6 C8          -0.5260     0.0000     1.3710 c3         1 AXS       0.134800
      7 C10         -2.6320     0.0010     2.7690 c3         1 AXS      -0.058400
      8 C1           2.2020     1.1980    -2.0710 ca         1 AXS      -0.060000
      9 C2           2.6630     1.1990    -3.3750 ca         1 AXS      -0.134000
     10 C3           2.8930     0.0010    -4.0280 ca         1 AXS       0.104900
     11 C9          -2.0560     0.0010     1.3310 c3         1 AXS       0.180100
     12 C11         -4.0290     0.6370     2.5270 c3         1 AXS      -0.060400
     13 C12         -3.7390     1.6390     1.3890 c3         1 AXS       0.208400
     14 O1          -2.5390     1.2150     0.7340 os         1 AXS      -0.391600
     15 F1           3.3470     0.0010    -5.3000 f          1 AXS      -0.129900
     16 H1          -0.3340    -0.8090    -0.4850 hn         1 AXS       0.253800
     17 H4           2.0200    -2.1360    -1.5620 ha         1 AXS       0.109500
     18 H5           1.8300     0.8840     0.5110 h1         1 AXS       0.008700
     19 H6           1.8300    -0.8850     0.5100 h1         1 AXS       0.008700
     20 H7          -0.1780     0.8840     1.8920 h1         1 AXS       0.012700
     21 H8          -0.1790    -0.8850     1.8910 h1         1 AXS       0.012700
     22 H9          -2.7270    -1.0090     3.1480 hc         1 AXS       0.025700
     23 H10         -2.0330     0.6190     3.4260 hc         1 AXS       0.025700
     24 H11          2.0210     2.1350    -1.5600 ha         1 AXS       0.109500
     25 H12          2.8440     2.1380    -3.8840 ha         1 AXS       0.118000
     26 H13         -2.4240    -0.8570     0.7810 h1         1 AXS       0.014700
     27 H14         -4.7420    -0.1130     2.2060 hc         1 AXS       0.022700
     28 H15         -4.3740     1.1530     3.4150 hc         1 AXS       0.022700
     29 H16         -4.5600     1.6410     0.6840 h1         1 AXS       0.004200
     30 H17         -3.6000     2.6310     1.8020 h1         1 AXS       0.004200
     31 H3           2.8410    -2.1360    -3.8860 ha         1 AXS       0.118000
@<TRIPOS>BOND
     1     1     5 1   
     2     1     6 1   
     3     1    16 1   
     4     2     3 ar  
     5     2    10 ar  
     6     2    31 1   
     7     3     4 ar  
     8     3    17 1   
     9     4     5 1   
    10     4     8 ar  
    11     5    18 1   
    12     5    19 1   
    13     6    11 1   
    14     6    20 1   
    15     6    21 1   
    16     7    11 1   
    17     7    12 1   
    18     7    22 1   
    19     7    23 1   
    20     8     9 ar  
    21     8    24 1   
    22     9    10 ar  
    23     9    25 1   
    24    10    15 1   
    25    11    14 1   
    26    11    26 1   
    27    12    13 1   
    28    12    27 1   
    29    12    28 1   
    30    13    14 1   
    31    13    29 1   
    32    13    30 1   
@<TRIPOS>SUBSTRUCTURE
     1 AXS         1 TEMP              0 ****  ****    0 ROOT
