@<TRIPOS>MOLECULE
AXV
   18    19     1     0     0
SMALL
bcc


@<TRIPOS>ATOM
      1 N1           0.0000     0.0000     0.0000 na         1 AXV       0.240700
      2 N3          -1.7210    -0.0040    -1.7270 nu         1 AXV      -0.113800
      3 C4           1.7750    -0.0010    -1.3500 ca         1 AXV       0.067400
      4 C5           1.3850     0.0000     0.0000 ca         1 AXV      -0.260200
      5 C6           2.3470     0.0000     0.9990 ca         1 AXV      -0.087000
      6 C7          -0.4040    -0.0010    -1.3040 cc         1 AXV       0.252700
      7 C8          -2.7250    -0.0090    -0.8160 c1         1 AXV       0.161600
      8 C1           3.6850    -0.0010     0.6630 ca         1 AXV      -0.081000
      9 C2           4.0760    -0.0010    -0.6680 ca         1 AXV      -0.114000
     10 C3           3.1340    -0.0000    -1.6720 ca         1 AXV      -0.036000
     11 N2           0.6390     0.0050    -2.0940 nd         1 AXV      -0.490100
     12 N4          -3.5780    -0.0050    -0.0670 n1         1 AXV      -0.385800
     13 H1          -0.5880     0.0040     0.8100 hn         1 AXV       0.138700
     14 H2          -2.1650     0.8540    -1.9870 hn         1 AXV       0.277800
     15 H3           2.0470    -0.0020     2.0400 ha         1 AXV       0.103000
     16 H4           4.4390    -0.0010     1.4410 ha         1 AXV       0.105000
     17 H5           5.1290    -0.0020    -0.9230 ha         1 AXV       0.108000
     18 H6           3.4450    -0.0010    -2.7100 ha         1 AXV       0.113000
@<TRIPOS>BOND
     1     1     4 1   
     2     1     6 1   
     3     1    13 1   
     4     2     6 1   
     5     2     7 1   
     6     2    14 1   
     7     3     4 ar  
     8     3    10 ar  
     9     3    11 1   
    10     4     5 ar  
    11     5     8 ar  
    12     5    15 1   
    13     6    11 2   
    14     7    12 3   
    15     8     9 ar  
    16     8    16 1   
    17     9    10 ar  
    18     9    17 1   
    19    10    18 1   
@<TRIPOS>SUBSTRUCTURE
     1 AXV         1 TEMP              0 ****  ****    0 ROOT
