@<TRIPOS>MOLECULE
molecule
   18    19     1     0     0
SMALL
bcc


@<TRIPOS>ATOM
      1 N1           0.0000     0.0000     0.0000 na         1 AXV      -0.287300
      2 N3          -1.7210    -0.0040    -1.7270 nu         1 AXV      -0.478800
      3 C4           1.7750    -0.0010    -1.3500 ca         1 AXV       0.099400
      4 C5           1.3850     0.0000     0.0000 ca         1 AXV      -0.082200
      5 C6           2.3470     0.0000     0.9990 ca         1 AXV      -0.127000
      6 C7          -0.4040    -0.0010    -1.3040 cc         1 AXV       0.578700
      7 C8          -2.7250    -0.0090    -0.8160 c1         1 AXV       0.264600
      8 C1           3.6850    -0.0010     0.6630 ca         1 AXV      -0.107000
      9 C2           4.0760    -0.0010    -0.6680 ca         1 AXV      -0.142000
     10 C3           3.1340    -0.0000    -1.6720 ca         1 AXV      -0.067000
     11 N2           0.6390     0.0050    -2.0940 nd         1 AXV      -0.573100
     12 N4          -3.5780    -0.0050    -0.0670 n1         1 AXV      -0.358800
     13 H1          -0.5880     0.0040     0.8100 hn         1 AXV       0.309700
     14 H2          -2.1650     0.8540    -1.9870 hn         1 AXV       0.420800
     15 H3           2.0470    -0.0020     2.0400 ha         1 AXV       0.131000
     16 H4           4.4390    -0.0010     1.4410 ha         1 AXV       0.137000
     17 H5           5.1290    -0.0020    -0.9230 ha         1 AXV       0.138000
     18 H6           3.4450    -0.0010    -2.7100 ha         1 AXV       0.147000
@<TRIPOS>BOND
     1     8     9 ar
     2     8     5 ar
     3     9    10 ar
     4     5     4 ar
     5    10     3 ar
     6     4     3 ar
     7     4     1 1
     8     3    11 1
     9     1     6 1
    10    11     6 2
    11     6     2 1
    12     2     7 1
    13     7    12 3
    14     1    13 1
    15     2    14 1
    16     5    15 1
    17     8    16 1
    18     9    17 1
    19    10    18 1
@<TRIPOS>SUBSTRUCTURE
     1 AXV         1 TEMP              0 ****  ****    0 ROOT
