@<TRIPOS>MOLECULE
molecule
   53    55     1     0     0
SMALL
bcc


@<TRIPOS>ATOM
      1 F22          0.0000     0.0000     0.0000 f          1 AXW      -0.127900
      2 C22          1.3520     0.0000     0.0000 ca         1 AXW       0.162900
      3 C23          2.0440     0.0000     1.1990 ca         1 AXW      -0.172000
      4 C24          3.4270    -0.0010     1.1960 ca         1 AXW      -0.101000
      5 C25          4.1170     0.0000    -0.0020 ca         1 AXW      -0.148000
      6 C26          3.4260    -0.0000    -1.1990 ca         1 AXW      -0.101000
      7 C21          2.0430    -0.0060    -1.1990 ca         1 AXW      -0.130300
      8 C13          1.2900    -0.0060    -2.5040 c3         1 AXW       0.207100
      9 N12          0.7410    -1.3450    -2.7530 n7         1 AXW      -0.800200
     10 C11         -0.0030    -1.3820    -4.0200 c3         1 AXW       0.158800
     11 C10         -0.5580    -2.7900    -4.2440 c3         1 AXW       0.139400
     12 O09         -1.5220    -3.0880    -3.2320 os         1 AXW      -0.399600
     13 C4'         -2.1060    -4.3870    -3.3490 c3         1 AXW       0.101100
     14 C5'         -3.3920    -4.3210    -4.2000 c3         1 AXW       0.116800
     15 N1'         -4.3180    -5.2870    -3.5540 n7         1 AXW      -0.794200
     16 C2'         -4.0900    -5.0940    -2.0980 c3         1 AXW       0.156800
     17 C3'         -2.5650    -4.8960    -1.9670 c3         1 AXW      -0.096700
     18 C08         -2.2560    -3.8550    -0.8890 c3         1 AXW      -0.107700
     19 C06         -2.6640    -4.3910     0.4590 ca         1 AXW       0.477600
     20 N01         -3.9020    -4.8100     0.6450 nb         1 AXW      -0.776000
     21 C02         -4.3040    -5.2890     1.8120 ca         1 AXW       0.708200
     22 N02         -5.6180    -5.7190     1.9640 nv         1 AXW      -1.017500
     23 C03         -3.4250    -5.3650     2.8880 ca         1 AXW      -0.330300
     24 C05         -1.7380    -4.4430     1.4810 ca         1 AXW      -0.307300
     25 C04         -2.1210    -4.9340     2.7220 ca         1 AXW      -0.007300
     26 C07         -1.1370    -5.0000     3.8620 c3         1 AXW      -0.049800
     27 H1           1.5040    -0.0010     2.1370 ha         1 AXW       0.146000
     28 H2           3.9700    -0.0010     2.1340 ha         1 AXW       0.135000
     29 H3           5.2000     0.0020    -0.0020 ha         1 AXW       0.133000
     30 H4           3.9680    -0.0020    -2.1370 ha         1 AXW       0.133000
     31 H5           0.4810     0.7130    -2.4540 h1         1 AXW       0.041700
     32 H6           1.9630     0.2640    -3.3090 h1         1 AXW       0.041700
     33 H7           1.4870    -2.0110    -2.7840 hn         1 AXW       0.351800
     34 H9           0.6610    -1.1220    -4.8360 h1         1 AXW       0.042200
     35 H10         -0.8210    -0.6740    -3.9800 h1         1 AXW       0.042200
     36 H11         -1.0290    -2.8410    -5.2180 h1         1 AXW       0.023200
     37 H12          0.2510    -3.5090    -4.1950 h1         1 AXW       0.023200
     38 H13         -1.4020    -5.0840    -3.7880 h1         1 AXW       0.034700
     39 H14         -3.8110    -3.3220    -4.1720 h1         1 AXW       0.060700
     40 H15         -3.1850    -4.6220    -5.2200 h1         1 AXW       0.060700
     41 H16         -4.0600    -6.2200    -3.8120 hn         1 AXW       0.338800
     42 H18         -4.4030    -5.9730    -1.5480 h1         1 AXW       0.071700
     43 H19         -4.6150    -4.2140    -1.7490 h1         1 AXW       0.071700
     44 H20         -2.0840    -5.8380    -1.7370 hc         1 AXW       0.054700
     45 H21         -2.8060    -2.9450    -1.0970 hc         1 AXW       0.074700
     46 H22         -1.1940    -3.6430    -0.8860 hc         1 AXW       0.074700
     47 H23         -5.8930    -6.2060     2.7940 hn         1 AXW       0.437300
     48 H24         -6.2820    -5.5680     1.2300 hn         1 AXW       0.437300
     49 H25         -3.7570    -5.7560     3.8420 ha         1 AXW       0.132000
     50 H26         -0.7240    -4.0970     1.3190 ha         1 AXW       0.140000
     51 H27         -1.4710    -5.7350     4.5850 hc         1 AXW       0.045700
     52 H28         -0.1630    -5.2840     3.4830 hc         1 AXW       0.045700
     53 H29         -1.0700    -4.0300     4.3390 hc         1 AXW       0.045700
@<TRIPOS>BOND
     1    26    25 1
     2    25    23 ar
     3    25    24 ar
     4    23    21 ar
     5    24    19 ar
     6    21    22 1
     7    21    20 ar
     8    17    16 1
     9    17    18 1
    10    17    13 1
    11    19    20 ar
    12    19    18 1
    13    16    15 1
    14    11    12 1
    15    11    10 1
    16    13    12 1
    17    13    14 1
    18    15    14 1
    19    10     9 1
    20     9     8 1
    21     6     5 ar
    22     6     7 ar
    23     5     4 ar
    24     8     7 1
    25     7     2 ar
    26     4     3 ar
    27     2     3 ar
    28     2     1 1
    29     3    27 1
    30     4    28 1
    31     5    29 1
    32     6    30 1
    33     8    31 1
    34     8    32 1
    35     9    33 1
    36    10    34 1
    37    10    35 1
    38    11    36 1
    39    11    37 1
    40    13    38 1
    41    14    39 1
    42    14    40 1
    43    15    41 1
    44    16    42 1
    45    16    43 1
    46    17    44 1
    47    18    45 1
    48    18    46 1
    49    22    47 1
    50    22    48 1
    51    23    49 1
    52    24    50 1
    53    26    51 1
    54    26    52 1
    55    26    53 1
@<TRIPOS>SUBSTRUCTURE
     1 AXW         1 TEMP              0 ****  ****    0 ROOT
