@<TRIPOS>MOLECULE
AXW
   53    55     1     0     0
SMALL
bcc


@<TRIPOS>ATOM
      1 F22          0.0000     0.0000     0.0000 f          1 AXW      -0.121900
      2 C22          1.3520     0.0000     0.0000 ca         1 AXW       0.137900
      3 C23          2.0440     0.0000     1.1990 ca         1 AXW      -0.137000
      4 C24          3.4270    -0.0010     1.1960 ca         1 AXW      -0.074000
      5 C25          4.1170     0.0000    -0.0020 ca         1 AXW      -0.117000
      6 C26          3.4260    -0.0000    -1.1990 ca         1 AXW      -0.073000
      7 C21          2.0430    -0.0060    -1.1990 ca         1 AXW      -0.130300
      8 C13          1.2900    -0.0060    -2.5040 c3         1 AXW       0.206100
      9 N12          0.7410    -1.3450    -2.7530 n7         1 AXW      -0.567200
     10 C11         -0.0030    -1.3820    -4.0200 c3         1 AXW       0.138800
     11 C10         -0.5580    -2.7900    -4.2440 c3         1 AXW       0.208400
     12 O09         -1.5220    -3.0880    -3.2320 os         1 AXW      -0.380600
     13 C4'         -2.1060    -4.3870    -3.3490 c3         1 AXW       0.143100
     14 C5'         -3.3920    -4.3210    -4.2000 c3         1 AXW       0.111800
     15 N1'         -4.3180    -5.2870    -3.5540 n7         1 AXW      -0.583200
     16 C2'         -4.0900    -5.0940    -2.0980 c3         1 AXW       0.144800
     17 C3'         -2.5650    -4.8960    -1.9670 c3         1 AXW      -0.074700
     18 C08         -2.2560    -3.8550    -0.8890 c3         1 AXW      -0.063700
     19 C06         -2.6640    -4.3910     0.4590 ca         1 AXW       0.433600
     20 N01         -3.9020    -4.8100     0.6450 nb         1 AXW      -0.660000
     21 C02         -4.3040    -5.2890     1.8120 ca         1 AXW       0.515200
     22 N02         -5.6180    -5.7190     1.9640 nv         1 AXW      -0.540500
     23 C03         -3.4250    -5.3650     2.8880 ca         1 AXW      -0.314300
     24 C05         -1.7380    -4.4430     1.4810 ca         1 AXW      -0.287300
     25 C04         -2.1210    -4.9340     2.7220 ca         1 AXW      -0.006300
     26 C07         -1.1370    -5.0000     3.8620 c3         1 AXW       0.060200
     27 H1           1.5040    -0.0010     2.1370 ha         1 AXW       0.119000
     28 H2           3.9700    -0.0010     2.1340 ha         1 AXW       0.105000
     29 H3           5.2000     0.0020    -0.0020 ha         1 AXW       0.106000
     30 H4           3.9680    -0.0020    -2.1370 ha         1 AXW       0.106000
     31 H5           0.4810     0.7130    -2.4540 h1         1 AXW       0.013700
     32 H6           1.9630     0.2640    -3.3090 h1         1 AXW       0.013700
     33 H7           1.4870    -2.0110    -2.7840 hn         1 AXW       0.250800
     34 H9           0.6610    -1.1220    -4.8360 h1         1 AXW       0.014200
     35 H10         -0.8210    -0.6740    -3.9800 h1         1 AXW       0.014200
     36 H11         -1.0290    -2.8410    -5.2180 h1         1 AXW      -0.009800
     37 H12          0.2510    -3.5090    -4.1950 h1         1 AXW      -0.009800
     38 H13         -1.4020    -5.0840    -3.7880 h1         1 AXW       0.007700
     39 H14         -3.8110    -3.3220    -4.1720 h1         1 AXW       0.028200
     40 H15         -3.1850    -4.6220    -5.2200 h1         1 AXW       0.028200
     41 H16         -4.0600    -6.2200    -3.8120 hn         1 AXW       0.245800
     42 H18         -4.4030    -5.9730    -1.5480 h1         1 AXW       0.039200
     43 H19         -4.6150    -4.2140    -1.7490 h1         1 AXW       0.039200
     44 H20         -2.0840    -5.8380    -1.7370 hc         1 AXW       0.029700
     45 H21         -2.8060    -2.9450    -1.0970 hc         1 AXW       0.042200
     46 H22         -1.1940    -3.6430    -0.8860 hc         1 AXW       0.042200
     47 H23         -5.8930    -6.2060     2.7940 hn         1 AXW       0.269300
     48 H24         -6.2820    -5.5680     1.2300 hn         1 AXW       0.269300
     49 H25         -3.7570    -5.7560     3.8420 ha         1 AXW       0.117000
     50 H26         -0.7240    -4.0970     1.3190 ha         1 AXW       0.122000
     51 H27         -1.4710    -5.7350     4.5850 hc         1 AXW       0.008700
     52 H28         -0.1630    -5.2840     3.4830 hc         1 AXW       0.008700
     53 H29         -1.0700    -4.0300     4.3390 hc         1 AXW       0.008700
@<TRIPOS>BOND
     1     1     2 1   
     2     2     3 ar  
     3     2     7 ar  
     4     3     4 ar  
     5     3    27 1   
     6     4     5 ar  
     7     4    28 1   
     8     5     6 ar  
     9     5    29 1   
    10     6     7 ar  
    11     6    30 1   
    12     7     8 1   
    13     8     9 1   
    14     8    31 1   
    15     8    32 1   
    16     9    10 1   
    17     9    33 1   
    18    10    11 1   
    19    10    34 1   
    20    10    35 1   
    21    11    12 1   
    22    11    36 1   
    23    11    37 1   
    24    12    13 1   
    25    13    14 1   
    26    13    17 1   
    27    13    38 1   
    28    14    15 1   
    29    14    39 1   
    30    14    40 1   
    31    15    16 1   
    32    15    41 1   
    33    16    17 1   
    34    16    42 1   
    35    16    43 1   
    36    17    18 1   
    37    17    44 1   
    38    18    19 1   
    39    18    45 1   
    40    18    46 1   
    41    19    20 ar  
    42    19    24 ar  
    43    20    21 ar  
    44    21    22 1   
    45    21    23 ar  
    46    22    47 1   
    47    22    48 1   
    48    23    25 ar  
    49    23    49 1   
    50    24    25 ar  
    51    24    50 1   
    52    25    26 1   
    53    26    51 1   
    54    26    52 1   
    55    26    53 1   
@<TRIPOS>SUBSTRUCTURE
     1 AXW         1 TEMP              0 ****  ****    0 ROOT
