@<TRIPOS>MOLECULE
molecule
   35    37     1     0     0
SMALL
bcc


@<TRIPOS>ATOM
      1 O5           0.0000     0.0000     0.0000 o          1 AXX      -0.554100
      2 C4           1.2130     0.0000     0.0000 c          1 AXX       0.694100
      3 C2           1.9660     0.0000     1.3050 cx         1 AXX      -0.260700
      4 C3           1.1430    -0.0000     2.5960 cx         1 AXX      -0.090900
      5 C1           1.8910     1.2640     2.1650 cx         1 AXX      -0.090900
      6 N6           1.8870    -0.0050    -1.1680 ns         1 AXX      -0.445100
      7 C7           1.1940    -0.0110    -2.3680 cc         1 AXX       0.113500
      8 S11         -0.5030    -0.0110    -2.5060 ss         1 AXX       0.159200
      9 C10         -0.4440    -0.0190    -4.2610 cc         1 AXX      -0.079400
     10 C18         -1.6580    -0.0230    -5.1700 c3         1 AXX      -0.001100
     11 C17         -1.2200     0.3860    -6.5790 c3         1 AXX      -0.083400
     12 C16         -0.0090    -0.4590    -6.9890 c3         1 AXX      -0.076400
     13 C15          1.2070    -0.0280    -6.1650 c3         1 AXX      -0.030100
     14 C9           0.8220    -0.0220    -4.6940 cd         1 AXX      -0.067300
     15 C8           1.7800    -0.0110    -3.6030 cd         1 AXX      -0.355600
     16 C12          3.2310    -0.0050    -3.8050 c          1 AXX       0.542700
     17 O13          3.8390    -1.0550    -3.8880 o          1 AXX      -0.397100
     18 N14          3.8940     1.1660    -3.9010 nz         1 AXX      -0.684400
     19 H2           2.9060    -0.5350     1.3670 hc         1 AXX       0.099700
     20 H31          0.0680     0.0250     2.4650 hc         1 AXX       0.094700
     21 H32          1.5790    -0.5400     3.4280 hc         1 AXX       0.094700
     22 H11          1.2720     2.0610     1.7710 hc         1 AXX       0.094700
     23 H12          2.7830     1.4960     2.7340 hc         1 AXX       0.094700
     24 HN6          2.8870    -0.0280    -1.1670 hn         1 AXX       0.320500
     25 H181        -2.0860    -1.0170    -5.1980 hc         1 AXX       0.069700
     26 H182        -2.3900     0.6840    -4.8000 hc         1 AXX       0.069700
     27 H171        -0.9470     1.4340    -6.5830 hc         1 AXX       0.057200
     28 H172        -2.0320     0.2140    -7.2740 hc         1 AXX       0.057200
     29 H161        -0.2250    -1.4950    -6.7580 hc         1 AXX       0.064700
     30 H162         0.2030    -0.2610    -8.0330 hc         1 AXX       0.064700
     31 H151         1.9910    -0.7620    -6.3080 hc         1 AXX       0.051200
     32 H152         1.4710     0.9820    -6.4520 hc         1 AXX       0.051200
     33 H141         4.3340     1.2280    -4.7970 hn         1 AXX       0.474800
     34 H142         4.5890     1.2150    -3.1830 hn         1 AXX       0.474800
     35 H143         3.2490     1.9240    -3.7930 hn         1 AXX       0.474800
@<TRIPOS>BOND
     1     1     2 2
     2     2     6 1
     3     2     3 1
     4     3     4 1
     5     3     5 1
     6     3    19 1
     7     4     5 1
     8     4    20 1
     9     4    21 1
    10     5    22 1
    11     5    23 1
    12     6     7 1
    13     6    24 1
    14     7     8 1
    15     7    15 2
    16     8     9 1
    17     9    10 1
    18     9    14 2
    19    10    11 1
    20    10    25 1
    21    10    26 1
    22    11    12 1
    23    11    27 1
    24    11    28 1
    25    12    13 1
    26    12    29 1
    27    12    30 1
    28    13    14 1
    29    13    31 1
    30    13    32 1
    31    14    15 1
    32    15    16 1
    33    16    18 1
    34    16    17 2
    35    18    33 1
    36    18    34 1
    37    35    18 1
@<TRIPOS>SUBSTRUCTURE
     1 AXX         1 TEMP              0 ****  ****    0 ROOT
