@<TRIPOS>MOLECULE
molecule
   51    54     1     0     0
SMALL
bcc


@<TRIPOS>ATOM
      1 CAK          0.0000     0.0000     0.0000 ca         1 AXY      -0.126500
      2 CAE          1.3800     0.0000     0.0000 ca         1 AXY      -0.129000
      3 CAC          2.0750     0.0000     1.1960 ca         1 AXY      -0.144000
      4 CAF          1.3910     0.0000     2.3980 ca         1 AXY      -0.129000
      5 CAL          0.0120     0.0010     2.4110 ca         1 AXY      -0.126500
      6 CAZ         -0.6930     0.0070     1.2080 cp         1 AXY      -0.010000
      7 CBB         -2.1770     0.0070     1.2150 cp         1 AXY      -0.068000
      8 CAR         -2.8710     0.0130     2.4240 ca         1 AXY      -0.121000
      9 CAJ         -4.2520     0.0130     2.4240 ca         1 AXY      -0.123500
     10 CAQ         -2.8820     0.0070     0.0130 ca         1 AXY      -0.121000
     11 CAI         -4.2620     0.0070     0.0250 ca         1 AXY      -0.123500
     12 CAX         -4.9460     0.0070     1.2280 ca         1 AXY      -0.057300
     13 CAU         -6.4530     0.0070     1.2350 c3         1 AXY      -0.021100
     14 CBD         -6.9620    -1.4350     1.2360 c3         1 AXY       0.031100
     15 CAW         -8.4640    -1.4380     1.3680 c          1 AXY       0.867600
     16 OAB         -9.1450    -1.9350     0.5020 o          1 AXY      -0.823800
     17 OAA         -9.0450    -0.8870     2.4460 o          1 AXY      -0.823800
     18 OAV         -6.5910    -2.0740     0.0150 os         1 AXY      -0.312900
     19 CAY         -6.4900    -3.4290     0.0310 ca         1 AXY       0.206100
     20 CAP         -6.0240    -4.1040    -1.0890 ca         1 AXY      -0.194000
     21 CAT         -5.9220    -5.4790    -1.0740 ca         1 AXY      -0.080000
     22 CAO         -6.8480    -4.1350     1.1720 ca         1 AXY      -0.194000
     23 CAS         -6.7480    -5.5110     1.1920 ca         1 AXY      -0.080000
     24 CBC         -6.2850    -6.1920     0.0670 cp         1 AXY      -0.122000
     25 CBA         -6.1770    -7.6710     0.0860 cp         1 AXY       0.009000
     26 CAM         -6.5400    -8.3840     1.2250 ca         1 AXY      -0.134500
     27 CAG         -6.4370    -9.7610     1.2380 ca         1 AXY      -0.128000
     28 CAD         -5.9730   -10.4310     0.1210 ca         1 AXY      -0.154000
     29 CAH         -5.6100    -9.7280    -1.0140 ca         1 AXY      -0.128000
     30 CAN         -5.7160    -8.3530    -1.0390 ca         1 AXY      -0.134500
     31 H1          -0.5430     0.0020    -0.9380 ha         1 AXY       0.134500
     32 H2           1.9210    -0.0030    -0.9390 ha         1 AXY       0.121000
     33 H3           3.1580    -0.0000     1.1910 ha         1 AXY       0.119000
     34 H4           1.9400    -0.0020     3.3320 ha         1 AXY       0.121000
     35 H5          -0.5230     0.0030     3.3530 ha         1 AXY       0.134500
     36 H6          -2.3290     0.0170     3.3610 ha         1 AXY       0.121500
     37 H7          -4.7920     0.0150     3.3620 ha         1 AXY       0.139500
     38 H8          -2.3480     0.0070    -0.9290 ha         1 AXY       0.121500
     39 H9          -4.8110     0.0050    -0.9080 ha         1 AXY       0.139500
     40 H10         -6.8180     0.5190     0.3530 hc         1 AXY       0.073200
     41 H11         -6.8100     0.5170     2.1220 hc         1 AXY       0.073200
     42 H12         -6.5260    -1.9710     2.0710 h1         1 AXY       0.042700
     43 H14         -5.7420    -3.5500    -1.9760 ha         1 AXY       0.147500
     44 H15         -5.5600    -6.0050    -1.9500 ha         1 AXY       0.120000
     45 H16         -7.2070    -3.6060     2.0460 ha         1 AXY       0.147500
     46 H17         -7.0290    -6.0620     2.0820 ha         1 AXY       0.120000
     47 H18         -6.9030    -7.8600     2.1010 ha         1 AXY       0.133500
     48 H19         -6.7190   -10.3170     2.1240 ha         1 AXY       0.118000
     49 H20         -5.8910   -11.5120     0.1350 ha         1 AXY       0.115000
     50 H21         -5.2500   -10.2590    -1.8870 ha         1 AXY       0.118000
     51 H22         -5.4310    -7.8030    -1.9280 ha         1 AXY       0.133500
@<TRIPOS>BOND
     1    29    28 ar
     2    29    30 ar
     3    28    27 ar
     4    30    25 ar
     5    27    26 ar
     6    25    26 ar
     7    25    24 1
     8    24    21 ar
     9    24    23 ar
    10    21    20 ar
    11    23    22 ar
    12    20    19 ar
    13    22    19 ar
    14    19    18 1
    15    14    18 1
    16    14    15 1
    17    14    13 1
    18    16    15 1
    19    15    17 1
    20    13    12 1
    21    12    11 ar
    22    12     9 ar
    23    11    10 ar
    24     9     8 ar
    25    10     7 ar
    26     8     7 ar
    27     7     6 1
    28     6     1 ar
    29     6     5 ar
    30     1     2 ar
    31     5     4 ar
    32     2     3 ar
    33     4     3 ar
    34     1    31 1
    35     2    32 1
    36     3    33 1
    37     4    34 1
    38     5    35 1
    39     8    36 1
    40     9    37 1
    41    10    38 1
    42    11    39 1
    43    13    40 1
    44    13    41 1
    45    14    42 1
    46    20    43 1
    47    21    44 1
    48    22    45 1
    49    23    46 1
    50    26    47 1
    51    27    48 1
    52    28    49 1
    53    29    50 1
    54    30    51 1
@<TRIPOS>SUBSTRUCTURE
     1 AXY         1 TEMP              0 ****  ****    0 ROOT
