@<TRIPOS>MOLECULE
AXY
   51    54     1     0     0
SMALL
bcc


@<TRIPOS>ATOM
      1 CAK         0.2350    0.1110    0.2230 ca        1 AXY     -0.125500
      2 CAE         1.6240    0.2060    0.2890 ca        1 AXY     -0.134000
      3 CAC         2.2560    0.4210    1.5130 ca        1 AXY     -0.143000
      4 CAF         1.4930    0.5410    2.6740 ca        1 AXY     -0.134000
      5 CAL         0.1040    0.4470    2.6130 ca        1 AXY     -0.125500
      6 CAZ        -0.5410    0.2310    1.3860 cp        1 AXY     -0.009000
      7 CBB        -1.9970    0.1330    1.3190 cp        1 AXY     -0.075000
      8 CAR        -2.8040    0.9690    2.1020 ca        1 AXY     -0.119500
      9 CAJ        -4.1920    0.8770    2.0340 ca        1 AXY     -0.136000
     10 CAQ        -2.6110   -0.8010    0.4710 ca        1 AXY     -0.119500
     11 CAI        -3.9970   -0.8920    0.4080 ca        1 AXY     -0.136000
     12 CAX        -4.8060   -0.0520    1.1860 ca        1 AXY     -0.042300
     13 CAU        -6.2880   -0.1240    1.0950 c3        1 AXY     -0.044100
     14 CBD        -6.8650   -1.5140    1.3420 c3        1 AXY      0.014100
     15 CAW        -8.3550   -1.3960    1.7960 c         1 AXY      0.907600
     16 OAB        -8.7280   -2.2030    2.6930 o         1 AXY     -0.818800
     17 OAA        -9.0640   -0.4910    1.2890 o         1 AXY     -0.818800
     18 OAV        -6.7510   -2.2010    0.0720 os        1 AXY     -0.331900
     19 CAY        -6.6910   -3.5700    0.1050 ca        1 AXY      0.166100
     20 CAP        -6.1420   -4.1720   -1.0460 ca        1 AXY     -0.194000
     21 CAT        -6.0570   -5.5550   -1.1230 ca        1 AXY     -0.090000
     22 CAO        -7.1540   -4.3680    1.1640 ca        1 AXY     -0.194000
     23 CAS        -7.0500   -5.7500    1.0710 ca        1 AXY     -0.090000
     24 CBC        -6.4980   -6.3630   -0.0660 cp        1 AXY     -0.119000
     25 CBA        -6.3900   -7.8160   -0.1480 cp        1 AXY      0.006000
     26 CAM        -6.0540   -8.5720    0.9870 ca        1 AXY     -0.131000
     27 CAG        -5.9490   -9.9580    0.9070 ca        1 AXY     -0.133500
     28 CAD        -6.1760  -10.6120   -0.3030 ca        1 AXY     -0.151000
     29 CAH        -6.5110   -9.8710   -1.4360 ca        1 AXY     -0.133500
     30 CAN        -6.6180   -8.4840   -1.3610 ca        1 AXY     -0.131000
     31 H1         -0.2600   -0.0540   -0.7450 ha        1 AXY      0.136000
     32 H2          2.2220    0.1120   -0.6290 ha        1 AXY      0.123000
     33 H3          3.3510    0.4950    1.5630 ha        1 AXY      0.121000
     34 H4          1.9870    0.7070    3.6420 ha        1 AXY      0.123000
     35 H5         -0.4950    0.5330    3.5320 ha        1 AXY      0.136000
     36 H6         -2.3380    1.7080    2.7700 ha        1 AXY      0.122000
     37 H7         -4.8130    1.5400    2.6550 ha        1 AXY      0.144500
     38 H8         -1.9910   -1.4730   -0.1390 ha        1 AXY      0.122000
     39 H9         -4.4810   -1.6350   -0.2490 ha        1 AXY      0.144500
     40 H10        -6.7640    0.5680    1.8410 hc        1 AXY      0.077700
     41 H11        -6.6170    0.2150    0.0740 hc        1 AXY      0.077700
     42 H12        -6.2740   -2.0690    2.1180 h1        1 AXY      0.044700
     43 H14        -5.7970   -3.5360   -1.8720 ha        1 AXY      0.172000
     44 H15        -5.6240   -6.0210   -2.0210 ha        1 AXY      0.120500
     45 H16        -7.6330   -3.8910    2.0430 ha        1 AXY      0.172000
     46 H17        -7.4250   -6.3730    1.8970 ha        1 AXY      0.120500
     47 H18        -5.8700   -8.0590    1.9430 ha        1 AXY      0.135000
     48 H19        -5.6850  -10.5380    1.8030 ha        1 AXY      0.120000
     49 H20        -6.0920  -11.7060   -0.3640 ha        1 AXY      0.118000
     50 H21        -6.6950  -10.3820   -2.3920 ha        1 AXY      0.120000
     51 H22        -6.8940   -7.9050   -2.2550 ha        1 AXY      0.135000
@<TRIPOS>BOND
     1    1    2 ar  
     2    1    6 ar  
     3    1   31 1   
     4    2    3 ar  
     5    2   32 1   
     6    3    4 ar  
     7    3   33 1   
     8    4    5 ar  
     9    4   34 1   
    10    5    6 ar  
    11    5   35 1   
    12    6    7 1   
    13    7    8 ar  
    14    7   10 ar  
    15    8    9 ar  
    16    8   36 1   
    17    9   12 ar  
    18    9   37 1   
    19   10   11 ar  
    20   10   38 1   
    21   11   12 ar  
    22   11   39 1   
    23   12   13 1   
    24   13   14 1   
    25   13   40 1   
    26   13   41 1   
    27   14   15 1   
    28   14   18 1   
    29   14   42 1   
    30   15   16 1   
    31   15   17 1   
    32   18   19 1   
    33   19   20 ar  
    34   19   22 ar  
    35   20   21 ar  
    36   20   43 1   
    37   21   24 ar  
    38   21   44 1   
    39   22   23 ar  
    40   22   45 1   
    41   23   24 ar  
    42   23   46 1   
    43   24   25 1   
    44   25   26 ar  
    45   25   30 ar  
    46   26   27 ar  
    47   26   47 1   
    48   27   28 ar  
    49   27   48 1   
    50   28   29 ar  
    51   28   49 1   
    52   29   30 ar  
    53   29   50 1   
    54   30   51 1   
@<TRIPOS>SUBSTRUCTURE
     1 AXY         1 TEMP              0 ****  ****    0 ROOT
