@<TRIPOS>MOLECULE
molecule
   37    37     1     0     0
SMALL
bcc


@<TRIPOS>ATOM
      1 O2S          0.0000     0.0000     0.0000 oh         1 AXZ      -0.664200
      2 S            1.6600     0.0000     0.0000 s6         1 AXZ       0.762900
      3 O1S          3.3190     0.0000     0.0290 oh         1 AXZ      -0.664200
      4 C1           1.6590    -0.3640     1.7740 ca         1 AXZ      -0.045500
      5 C2           1.6590     0.6690     2.6920 ca         1 AXZ      -0.066000
      6 C6           1.6530    -1.6760     2.2100 ca         1 AXZ      -0.066000
      7 C5           1.6520    -1.9550     3.5640 ca         1 AXZ      -0.117500
      8 C4           1.6590    -0.9200     4.4820 ca         1 AXZ      -0.142300
      9 C3           1.6590     0.3910     4.0460 ca         1 AXZ      -0.117500
     10 C7           1.6570    -1.2230     5.9580 c3         1 AXZ      -0.062100
     11 N            1.6600    -1.3090    -1.1620 n7         1 AXZ      -1.012000
     12 CA           1.6600    -0.7910    -2.5360 c3         1 AXZ       0.214500
     13 CB           2.4880    -1.7190    -3.4290 c3         1 AXZ      -0.312600
     14 C            0.2450    -0.7300    -3.0500 c          1 AXZ       0.879600
     15 O            0.0010    -0.2860    -4.2940 o          1 AXZ      -0.825300
     16 OXT         -0.6700    -1.0810    -2.3440 o          1 AXZ      -0.825300
     17 O9           1.8540    -2.9960    -3.5060 oh         1 AXZ      -0.462800
     18 H2S1        -0.3140     0.0420     0.8880 ho         1 AXZ       0.376500
     19 H1S1         3.6190     0.3340     0.8580 ho         1 AXZ       0.376500
     20 H21          1.6890     1.6970     2.3500 ha         1 AXZ       0.156000
     21 H61          1.6490    -2.4860     1.4910 ha         1 AXZ       0.156000
     22 H51          1.6800    -2.9820     3.9050 ha         1 AXZ       0.121000
     23 H31          1.7200     1.2000     4.7640 ha         1 AXZ       0.121000
     24 H71          2.1780    -0.4360     6.4890 hc         1 AXZ       0.126700
     25 H72          2.1560    -2.1680     6.1330 hc         1 AXZ       0.126700
     26 H            1.7350    -2.1830    -0.6800 hn         1 AXZ       0.410800
     27 HA           2.0920     0.2020    -2.5480 h1         1 AXZ       0.053700
     28 HB2          2.6350    -2.6670    -2.9270 h1         1 AXZ       0.201700
     29 HB3          3.4500    -1.2630    -3.6290 h1         1 AXZ       0.201700
     30 H91          1.9600    -3.3490    -4.3740 ho         1 AXZ       0.363000
     31 C8           3.0990    -1.3340     6.4570 c3         1 AXZ      -0.007200
     32 N1           3.0980    -1.6290     7.8960 nz         1 AXZ      -0.816600
     33 H2           3.6050    -2.1300     5.9250 hx         1 AXZ       0.093700
     34 H3           3.6150    -0.3970     6.2810 hx         1 AXZ       0.093700
     35 H4           2.6310    -0.8930     8.3870 hn         1 AXZ       0.458133
     36 H5           2.6220    -2.4940     8.0590 hn         1 AXZ       0.458133
     37 H13          4.0420    -1.7020     8.2220 hn         1 AXZ       0.458133
@<TRIPOS>BOND
     1     1     2 1
     2     2     3 1
     3     2     4 1
     4     2    11 3
     5     4     5 ar
     6     4     6 ar
     7     5     9 ar
     8     6     7 ar
     9     7     8 ar
    10     8     9 ar
    11     8    10 1
    12    11    12 1
    13    12    13 1
    14    12    14 1
    15    13    17 1
    16    14    15 1
    17    14    16 1
    18     1    18 1
    19     3    19 1
    20     5    20 1
    21     6    21 1
    22     7    22 1
    23     9    23 1
    24    10    24 1
    25    10    25 1
    26    11    26 1
    27    12    27 1
    28    13    28 1
    29    13    29 1
    30    17    30 1
    31    10    31 1
    32    31    32 1
    33    31    33 1
    34    31    34 1
    35    32    35 1
    36    32    36 1
    37    37    32 1
@<TRIPOS>SUBSTRUCTURE
     1 AXZ         1 TEMP              0 ****  ****    0 ROOT
