@<TRIPOS>MOLECULE
AXZ
   38    36     1     0     0
SMALL
bcc


@<TRIPOS>ATOM
      1 O2S         2.9060    0.0480    1.8000 oh        1 AXZ     -0.694000
      2 S           2.1930   -1.3920    1.2100 s6        1 AXZ      1.800000
      3 O1S         3.8020   -1.9650    1.6410 oh        1 AXZ     -0.694000
      4 C1          1.3060   -1.8250    2.5630 ca        1 AXZ     -0.676000
      5 C2          0.0340   -1.2810    2.8010 ca        1 AXZ     -0.029000
      6 C6          1.7670   -2.8410    3.4160 ca        1 AXZ     -0.029000
      7 C5          0.9850   -3.3030    4.4660 ca        1 AXZ     -0.157000
      8 C4         -0.2880   -2.7580    4.6940 ca        1 AXZ      0.018000
      9 C3         -0.7530   -1.7390    3.8520 ca        1 AXZ     -0.157000
     10 C7         -1.1350   -3.2650    5.7960 c3        1 AXZ     -0.204000
     11 N           2.8320   -1.5870   -1.4130 n3        1 AXZ     -0.380000
     12 CA          2.0790   -0.4190   -1.8450 c3        1 AXZ     -0.129000
     13 CB          1.5330   -0.5070   -3.2900 c3        1 AXZ     -0.037000
     14 C           0.9080   -0.1460   -0.8980 c2        1 AXZ      0.349000
     15 O           1.1230   -0.2010    0.4220 os        1 AXZ     -0.666000
     16 OXT        -0.2240    0.1750   -1.2600 o         1 AXZ     -0.315000
     17 O9          0.7110   -1.6410   -3.4370 oh        1 AXZ     -0.327000
     18 H2S1        2.3960    0.8420    1.6080 ho        1 AXZ      0.261500
     19 H1S1        4.2770   -2.2530    0.8680 ho        1 AXZ      0.261500
     20 H21        -0.3530   -0.4860    2.1350 ha        1 AXZ      0.160000
     21 H61         2.7640   -3.2840    3.2420 ha        1 AXZ      0.160000
     22 H51         1.3580   -4.1070    5.1190 ha        1 AXZ      0.154500
     23 H31        -1.7520   -1.3050    4.0180 ha        1 AXZ      0.154500
     24 H71        -1.7900   -4.0920    5.4160 hc        1 AXZ      0.104333
     25 H72        -1.7940   -2.4580    6.2020 hc        1 AXZ      0.104333
     26 H           3.7430   -1.5730   -1.8330 hn        1 AXZ      0.171500
     27 HA          2.7520    0.4880   -1.7880 h1        1 AXZ      0.125000
     28 HB2         2.3780   -0.6550   -4.0150 h1        1 AXZ      0.110500
     29 HB3         0.9800    0.4380   -3.5300 h1        1 AXZ      0.110500
     30 H91        -0.1620   -1.4120   -3.0830 ho        1 AXZ      0.226000
     31 C8          4.8090    0.0370    3.3930 c1        1 AXZ      0.292000
     32 N1          4.7790    0.9820    4.0590 n2        1 AXZ     -0.139000
     33 H2          4.7720   -0.8570    2.7210 ha        1 AXZ      0.400000
     34 H3         -0.5120   -3.6710    6.6310 hc        1 AXZ      0.104333
     35 H4          4.7520    1.7880    4.6310 hn        1 AXZ      0.385000
     36 H5          4.7010    3.9020    6.1520 ha        1 AXZ      0.003500
     37 H22         2.3570   -2.4190   -1.7230 hn        1 AXZ      0.171500
     38 H13         4.7140    3.3650    5.7390 ha        1 AXZ      0.003500
@<TRIPOS>BOND
     1    1    2 1   
     2    1   18 1   
     3    2    3 1   
     4    2    4 1   
     5    2   15 1   
     6    3   19 1   
     7    4    5 1   
     8    4    6 1   
     9    5    9 1   
    10    5   20 1   
    11    6    7 1   
    12    6   21 1   
    13    7    8 1   
    14    7   22 1   
    15    8    9 1   
    16    8   10 1   
    17    9   23 1   
    18   10   24 1   
    19   10   25 1   
    20   10   34 1   
    21   11   12 1   
    22   11   26 1   
    23   11   37 1   
    24   12   13 1   
    25   12   14 1   
    26   12   27 1   
    27   13   17 1   
    28   13   28 1   
    29   13   29 1   
    30   14   15 1   
    31   14   16 1   
    32   17   30 1   
    33   31   32 1   
    34   31   33 1   
    35   32   35 1   
    36   36   38 1   
@<TRIPOS>SUBSTRUCTURE
     1 AXZ         1 TEMP              0 ****  ****    0 ROOT
