@<TRIPOS>MOLECULE
molecule
   76    77     1     0     0
SMALL
bcc


@<TRIPOS>ATOM
      1 C1           0.0000     0.0000     0.0000 c          1 AY1       0.657900
      2 C2           2.0480     0.0800     1.2120 ca         1 AY1       0.007600
      3 C3           1.5280    -0.5110     2.3530 ca         1 AY1      -0.093000
      4 C5           3.4220     0.2250     3.6250 ca         1 AY1      -0.107000
      5 C6           3.9630     0.8200     2.4820 ca         1 AY1      -0.154600
      6 C7           3.2700     0.7460     1.2680 ca         1 AY1       0.135100
      7 C8           5.2580     1.5240     2.5540 c          1 AY1       0.682700
      8 C9           7.2080     2.2930     3.7970 c3         1 AY1       0.055700
      9 O9          10.0970    -2.4930     4.0800 o          1 AY1      -0.562000
     10 C11          6.3870     3.7710     5.6250 c3         1 AY1      -0.090100
     11 C12          8.4680     0.9320     6.4810 c          1 AY1       0.752600
     12 C13          9.8780     1.0460     5.9990 c3         1 AY1      -0.161700
     13 C14         10.1250    -0.0080     4.9000 c3         1 AY1       0.121100
     14 C4           2.2150    -0.4360     3.5530 ca         1 AY1      -0.131000
     15 N1           1.3470     0.0000     0.0000 ns         1 AY1      -0.485100
     16 N2           5.9220     1.5950     3.7250 ns         1 AY1      -0.564900
     17 O1          -0.6070     0.0000     1.0500 o          1 AY1      -0.600100
     18 O2           3.7860     1.3200     0.1510 oh         1 AY1      -0.497100
     19 O3           5.7260     2.0410     1.5590 o          1 AY1      -0.589100
     20 C10          7.4640     2.7580     5.2300 c3         1 AY1       0.098100
     21 O4           7.4370     1.6620     6.1530 os         1 AY1      -0.410900
     22 O6           9.5840     1.8100     3.4490 os         1 AY1      -0.436900
     23 C15         10.6060     0.7720     3.6460 c3         1 AY1       0.136100
     24 C16         11.9730     1.4090     3.9030 c3         1 AY1      -0.090100
     25 C17          8.3170     1.3550     3.3910 c          1 AY1       0.682600
     26 C20         10.2520     4.8790     5.9780 c3         1 AY1      -0.080400
     27 O7           8.0760     0.2290     3.0270 o          1 AY1      -0.564500
     28 O8           8.8920    -0.7150     4.6050 os         1 AY1      -0.403900
     29 C21         10.1620     5.9120     7.1030 c3         1 AY1      -0.082400
     30 C22         10.3940     7.3110     6.5310 c3         1 AY1      -0.084400
     31 C23         10.3050     8.3440     7.6550 c3         1 AY1      -0.092100
     32 C24          9.0050    -1.9880     4.1910 c          1 AY1       0.657100
     33 C25          7.7690    -2.7860     3.8650 c3         1 AY1      -0.112700
     34 C26          6.9990    -2.0980     2.7370 c3         1 AY1      -0.077600
     35 C27          8.1730    -4.1940     3.4220 c3         1 AY1      -0.077600
     36 H1          -0.5410     0.0000    -0.9380 h5         1 AY1       0.035200
     37 H2           0.5790    -1.0300     2.3060 ha         1 AY1       0.174000
     38 H3           3.9540     0.2800     4.5670 ha         1 AY1       0.134000
     39 H4           7.1990     3.1500     3.1340 h1         1 AY1       0.113700
     40 H5           6.3950     4.5980     4.9250 hc         1 AY1       0.054033
     41 H6           6.5890     4.1410     6.6230 hc         1 AY1       0.054033
     42 H7           5.4160     3.2910     5.6080 hc         1 AY1       0.054033
     43 H8          10.5560     0.8710     6.8260 hc         1 AY1       0.098700
     44 H9          10.8910    -0.7030     5.2200 h1         1 AY1       0.096700
     45 H10          1.8000    -0.8990     4.4410 ha         1 AY1       0.142000
     46 H11          5.5350     1.1730     4.5460 hn         1 AY1       0.337500
     47 H12          8.4360     3.2330     5.2760 h1         1 AY1       0.117700
     48 H13         10.6450     0.1150     2.7860 h1         1 AY1       0.088700
     49 H14         12.2190     1.3230     4.9550 hc         1 AY1       0.056367
     50 H15         12.7260     0.9000     3.3140 hc         1 AY1       0.056367
     51 H16         11.9420     2.4560     3.6240 hc         1 AY1       0.056367
     52 H17          9.3560     2.6590     4.6780 hc         1 AY1       0.108700
     53 H18         11.0930     2.4910     4.9720 hc         1 AY1       0.108700
     54 H19          9.0380     3.4330     7.0060 hc         1 AY1       0.046200
     55 H20         10.7750     3.2650     7.2990 hc         1 AY1       0.046200
     56 H21         11.2350     4.9250     5.5230 hc         1 AY1       0.041200
     57 H22          9.4980     5.0920     5.2300 hc         1 AY1       0.041200
     58 H23          9.1800     5.8660     7.5580 hc         1 AY1       0.043200
     59 H24         10.9170     5.6980     7.8510 hc         1 AY1       0.043200
     60 H25          9.6400     7.5250     5.7830 hc         1 AY1       0.040200
     61 H26         11.3770     7.3570     6.0760 hc         1 AY1       0.040200
     62 H27         11.0170     8.0950     8.4320 hc         1 AY1       0.034033
     63 H28         10.5300     9.3280     7.2610 hc         1 AY1       0.034033
     64 H29          9.3040     8.3420     8.0690 hc         1 AY1       0.034033
     65 H30          7.1390    -2.8510     4.7440 hc         1 AY1       0.074700
     66 H31          6.4040    -1.2910     3.1460 hc         1 AY1       0.045867
     67 H32          7.7000    -1.6990     2.0130 hc         1 AY1       0.045867
     68 H33          6.3490    -2.8160     2.2520 hc         1 AY1       0.045867
     69 H34          8.7680    -4.6600     4.1980 hc         1 AY1       0.045867
     70 H35          8.7540    -4.1330     2.5090 hc         1 AY1       0.045867
     71 H36          7.2830    -4.7860     3.2440 hc         1 AY1       0.045867
     72 H37          1.8480    -0.0720    -0.8640 hn         1 AY1       0.336500
     73 H38          3.3630     2.1500     0.0000 ho         1 AY1       0.425000
     74 C18         10.1100     2.4450     5.4260 c3         1 AY1      -0.190400
     75 O5           8.2550     0.0480     7.2780 o          1 AY1      -0.589500
     76 C19         10.0200     3.4790     6.5510 c3         1 AY1      -0.103400
@<TRIPOS>BOND
     1    14     3 ar
     2    14     4 ar
     3     3     2 ar
     4    17     1 2
     5     4     5 ar
     6     1    15 1
     7     2    15 1
     8     2     6 ar
     9     5     6 ar
    10     5     7 1
    11     6    18 1
    12    16     7 1
    13    16     8 1
    14     7    19 2
    15    20    10 1
    16    20     8 1
    17    20    21 1
    18     8    25 1
    19    75    11 2
    20    21    11 1
    21    11    12 1
    22    25    22 1
    23    25    27 2
    24    76    26 1
    25    76    74 1
    26    22    23 1
    27    26    29 1
    28    12    74 1
    29    12    13 1
    30    29    30 1
    31    13    23 1
    32    13    28 1
    33    23    24 1
    34     9    32 2
    35    28    32 1
    36    30    31 1
    37    32    33 1
    38    33    34 1
    39    33    35 1
    40     1    36 1
    41     3    37 1
    42     4    38 1
    43     8    39 1
    44    10    40 1
    45    10    41 1
    46    10    42 1
    47    12    43 1
    48    13    44 1
    49    14    45 1
    50    16    46 1
    51    20    47 1
    52    23    48 1
    53    24    49 1
    54    24    50 1
    55    24    51 1
    56    74    52 1
    57    74    53 1
    58    76    54 1
    59    76    55 1
    60    26    56 1
    61    26    57 1
    62    29    58 1
    63    29    59 1
    64    30    60 1
    65    30    61 1
    66    31    62 1
    67    31    63 1
    68    31    64 1
    69    33    65 1
    70    34    66 1
    71    34    67 1
    72    34    68 1
    73    35    69 1
    74    35    70 1
    75    35    71 1
    76    15    72 1
    77    18    73 1
@<TRIPOS>SUBSTRUCTURE
     1 AY1         1 TEMP              0 ****  ****    0 ROOT
