@<TRIPOS>MOLECULE
molecule
   20    21     1     0     0
SMALL
bcc


@<TRIPOS>ATOM
      1 N1           0.0000     0.0000     0.0000 na         1 AY4      -0.042600
      2 C4           0.6210     0.0030     3.5940 ca         1 AY4      -0.078500
      3 C5           1.8230     0.0000     4.2970 ca         1 AY4      -0.149000
      4 C6           1.8140     0.0010     5.6790 ca         1 AY4       0.138900
      5 C7           0.6130     0.0030     6.3680 ca         1 AY4      -0.187000
      6 C8          -0.5870     0.0060     5.6770 ca         1 AY4       0.098900
      7 C1           1.7680     0.0000     1.2850 cc         1 AY4      -0.335300
      8 C2           1.3500     0.0000     0.0000 cd         1 AY4      -0.115300
      9 N2          -0.4360     0.0060     1.3310 nd         1 AY4      -0.466800
     10 C3           0.6260     0.0030     2.1100 cc         1 AY4       0.385800
     11 C9          -0.5900     0.0010     4.2900 ca         1 AY4       0.089100
     12 O1          -1.7670     0.0050     3.6110 oh         1 AY4      -0.475100
     13 F1          -1.7560     0.0040     6.3540 f          1 AY4      -0.130900
     14 F2           2.9810    -0.0030     6.3600 f          1 AY4      -0.133900
     15 H1          -0.5870     0.0000    -0.8100 hn         1 AY4       0.331700
     16 H2           2.7650    -0.0010     3.7610 ha         1 AY4       0.158000
     17 H3           0.6120     0.0050     7.4510 ha         1 AY4       0.162000
     18 H4           2.7980     0.0000     1.6210 ha         1 AY4       0.156000
     19 H5           1.9870    -0.0030    -0.8770 h4         1 AY4       0.170000
     20 H6          -2.2940    -0.7250     3.8910 ho         1 AY4       0.424000
@<TRIPOS>BOND
     1    13     6 1
     2    12    11 1
     3     6    11 ar
     4     6     5 ar
     5    11     2 ar
     6     5     4 ar
     7     2    10 1
     8     2     3 ar
     9     4     3 ar
    10     4    14 1
    11     7    10 1
    12     7     8 2
    13    10     9 2
    14     8     1 1
    15     9     1 1
    16     1    15 1
    17     3    16 1
    18     5    17 1
    19     7    18 1
    20     8    19 1
    21    12    20 1
@<TRIPOS>SUBSTRUCTURE
     1 AY4         1 TEMP              0 ****  ****    0 ROOT
