@<TRIPOS>MOLECULE
molecule
   43    45     1     0     0
SMALL
bcc


@<TRIPOS>ATOM
      1 C1           0.0000     0.0000     0.0000 ca         1 AY5      -0.136000
      2 C2           1.3800     0.0000     0.0000 ca         1 AY5      -0.134000
      3 C3           4.2630    -0.0010     0.0130 ca         1 AY5      -0.121500
      4 C7           5.6320    -0.0020     2.4230 ca         1 AY5      -0.111500
      5 C8          -2.4100     1.8930     3.4720 ca         1 AY5      -0.091000
      6 C9          -2.8320     3.1750     3.7650 ca         1 AY5      -0.127000
      7 C10          1.3700    -0.0000     2.4100 ca         1 AY5      -0.132000
      8 C11         -0.4700     2.2170     4.8390 ca         1 AY5      -0.101000
      9 C12          3.5580    -0.0010     1.2150 cp         1 AY5      -0.132000
     10 C13          2.0740     0.0000     1.2080 cp         1 AY5       0.038000
     11 C14          6.3260     0.0030     1.2260 ca         1 AY5       0.030700
     12 C15         -0.0110     0.0110     2.3980 ca         1 AY5      -0.114300
     13 C16         -1.2300     1.4130     4.0120 ca         1 AY5      -0.069300
     14 C19         -0.7740     0.0110     3.6980 c3         1 AY5       0.243700
     15 C20          7.8330     0.0130     1.2340 c3         1 AY5       0.057200
     16 C4           4.2520    -0.0010     2.4230 ca         1 AY5      -0.121500
     17 C5          -0.6940     0.0060     1.1950 ca         1 AY5      -0.142000
     18 C6           5.6420    -0.0010     0.0250 ca         1 AY5      -0.111500
     19 C17         -2.0720     3.9820     4.5930 ca         1 AY5       0.024400
     20 C18         -0.8890     3.5040     5.1290 ca         1 AY5       0.030400
     21 O22         -1.9120    -0.8450     3.5820 oh         1 AY5      -0.607800
     22 O23          8.3000     0.6890     2.4030 oh         1 AY5      -0.590800
     23 P26          8.4530    -1.7020     1.2360 p5         1 AY5       1.001700
     24 Cl1         -2.6020     5.5940     4.9590 cl         1 AY5      -0.115400
     25 Cl2          0.0660     4.5150     6.1690 cl         1 AY5      -0.097400
     26 H1          -0.5400    -0.0020    -0.9390 ha         1 AY5       0.110000
     27 H2           1.9230    -0.0020    -0.9380 ha         1 AY5       0.139000
     28 H3           3.7290    -0.0040    -0.9290 ha         1 AY5       0.096500
     29 H4           6.1730    -0.0030     3.3620 ha         1 AY5       0.150000
     30 H5          -3.0050     1.2610     2.8240 ha         1 AY5       0.155000
     31 H6          -3.7570     3.5500     3.3430 ha         1 AY5       0.139000
     32 H7           1.9040    -0.0000     3.3520 ha         1 AY5       0.137000
     33 H8           0.4550     1.8410     5.2600 ha         1 AY5       0.159000
     34 H9          -0.1320    -0.3460     4.4930 h1         1 AY5       0.049700
     35 H10          8.1950     0.5270     0.3510 h1         1 AY5       0.022700
     36 H11          3.7100    -0.0030     3.3610 ha         1 AY5       0.096500
     37 H12         -1.7780     0.0100     1.1900 ha         1 AY5       0.116000
     38 H13          6.1910     0.0000    -0.9100 ha         1 AY5       0.150000
     39 H14         -1.8470    -1.5410     4.2150 ho         1 AY5       0.403000
     40 H15          8.9170     1.3570     2.1550 ho         1 AY5       0.363000
     41 O21          7.9680    -2.4020     0.0250 o          1 AY5      -0.886167
     42 O24         10.0620    -1.6910     1.2420 o          1 AY5      -0.886167
     43 O25          7.9150    -2.4650     2.5480 o          1 AY5      -0.886167
@<TRIPOS>BOND
     1    25    20 1
     2    24    19 1
     3    20    19 ar
     4    20     8 ar
     5    19     6 ar
     6     8    13 ar
     7     6     5 ar
     8    21    14 1
     9    13     5 ar
    10    13    14 1
    11    14    12 1
    12    12     7 ar
    13    12    17 ar
    14     7    10 ar
    15    17     1 ar
    16    16     4 ar
    17    16     9 ar
    18    22    15 1
    19     4    11 ar
    20    10     9 1
    21    10     2 ar
    22     9     3 ar
    23    11    15 1
    24    11    18 ar
    25    41    23 1
    26     1     2 ar
    27     3    18 ar
    28    15    23 1
    29    23    42 1
    30    23    43 1
    31     1    26 1
    32     2    27 1
    33     3    28 1
    34     4    29 1
    35     5    30 1
    36     6    31 1
    37     7    32 1
    38     8    33 1
    39    14    34 1
    40    15    35 1
    41    16    36 1
    42    17    37 1
    43    18    38 1
    44    21    39 1
    45    22    40 1
@<TRIPOS>SUBSTRUCTURE
     1 AY5         1 TEMP              0 ****  ****    0 ROOT
