@<TRIPOS>MOLECULE
molecule
   51    54     1     0     0
SMALL
bcc


@<TRIPOS>ATOM
      1 N            0.0000     0.0000     0.0000 na         1 AY6       0.223300
      2 C            3.1730     0.0000     1.8360 c3         1 AY6      -0.016800
      3 O            1.4700     0.0080     4.2160 o          1 AY6      -0.570100
      4 C1           1.7620     0.0000     1.3090 cc         1 AY6      -0.174600
      5 C10         -0.8030    -0.0010    -1.1460 ca         1 AY6       0.013800
      6 C11         -1.8520    -0.9060    -1.2620 ca         1 AY6       0.042400
      7 C12         -2.6440    -0.9030    -2.3950 ca         1 AY6      -0.113000
      8 C13         -2.3940     0.0000    -3.4130 ca         1 AY6       0.039400
      9 C14         -1.3500     0.9020    -3.3000 ca         1 AY6      -0.113000
     10 C15         -0.5580     0.9080    -2.1680 ca         1 AY6      -0.102000
     11 C16          2.2490     0.0010    -1.1880 ca         1 AY6      -0.024000
     12 C17          3.2340     0.9780    -1.3270 ca         1 AY6      -0.101500
     13 C18          4.0500     0.9770    -2.4400 ca         1 AY6      -0.124000
     14 C19          3.8920     0.0080    -3.4170 ca         1 AY6       0.034400
     15 C2           1.3670     0.0000     0.0000 cd         1 AY6      -0.099300
     16 C20          2.9160    -0.9650    -3.2830 ca         1 AY6      -0.124000
     17 C21          2.0950    -0.9730    -2.1750 ca         1 AY6      -0.101500
     18 C3           0.5670     0.0090     2.0620 cd         1 AY6       0.264800
     19 C4           0.4630     0.0130     3.5350 c          1 AY6       0.621600
     20 C5          -1.5600     1.2160     5.9620 c3         1 AY6       0.145800
     21 C6          -1.5220     1.2610     7.4910 c3         1 AY6      -0.076400
     22 C7          -2.1770    -0.0050     8.0500 c3         1 AY6      -0.086400
     23 C8          -1.4450    -1.2330     7.5030 c3         1 AY6      -0.076400
     24 C9          -1.4850    -1.2060     5.9740 c3         1 AY6       0.145800
     25 N1          -0.4380     0.0050     1.2080 nc         1 AY6      -0.495800
     26 N2          -0.7490     0.0200     4.1260 ns         1 AY6      -0.452300
     27 N3          -0.8450     0.0240     5.4880 n3         1 AY6      -0.438600
     28 Cl          -3.3900     0.0000    -4.8340 cl         1 AY6      -0.085400
     29 Cl1         -2.1660    -2.0390     0.0150 cl         1 AY6      -0.063400
     30 Cl2          4.9220     0.0130    -4.8130 cl         1 AY6      -0.102400
     31 H1           3.8480    -0.3450     1.0630 hc         1 AY6       0.054367
     32 H2           3.2390    -0.6590     2.6930 hc         1 AY6       0.054367
     33 H3           3.4480     1.0050     2.1330 hc         1 AY6       0.054367
     34 H4          -3.4610    -1.6080    -2.4850 ha         1 AY6       0.166000
     35 H5          -1.1570     1.6100    -4.0970 ha         1 AY6       0.158000
     36 H6           0.2580     1.6140    -2.0810 ha         1 AY6       0.162000
     37 H7           3.3590     1.7370    -0.5640 ha         1 AY6       0.147500
     38 H8           4.8150     1.7350    -2.5500 ha         1 AY6       0.149000
     39 H9           2.7970    -1.7200    -4.0500 ha         1 AY6       0.149000
     40 H10          1.3310    -1.7340    -2.0710 ha         1 AY6       0.147500
     41 H11         -1.0820     2.1030     5.5640 h1         1 AY6       0.040200
     42 H12         -2.5900     1.1740     5.6290 h1         1 AY6       0.040200
     43 H13         -2.0640     2.1310     7.8400 hc         1 AY6       0.054200
     44 H14         -0.4930     1.3110     7.8250 hc         1 AY6       0.054200
     45 H15         -2.1120     0.0020     9.1310 hc         1 AY6       0.041200
     46 H16         -3.2160    -0.0390     7.7450 hc         1 AY6       0.041200
     47 H17         -0.4140    -1.2170     7.8370 hc         1 AY6       0.054200
     48 H18         -1.9320    -2.1320     7.8600 hc         1 AY6       0.054200
     49 H19         -2.5160    -1.2310     5.6400 h1         1 AY6       0.040200
     50 H20         -0.9530    -2.0650     5.5840 h1         1 AY6       0.040200
     51 H21         -1.5780     0.0310     3.5650 hn         1 AY6       0.309500
@<TRIPOS>BOND
     1    22    21 1
     2    22    23 1
     3    21    20 1
     4    20    27 1
     5    23    24 1
     6    24    27 1
     7    27    26 1
     8    26    19 1
     9    19     3 2
    10    19    18 1
    11    25    18 2
    12    25     1 1
    13     9    10 ar
    14     9     8 ar
    15    10     5 ar
    16    18     4 1
    17    28     8 1
    18     8     7 ar
    19     5     1 1
    20     5     6 ar
    21     1    15 1
    22     7     6 ar
    23     4    15 2
    24     4     2 1
    25     6    29 1
    26    15    11 1
    27    11    17 ar
    28    11    12 ar
    29    17    16 ar
    30    12    13 ar
    31    16    14 ar
    32    13    14 ar
    33    14    30 1
    34     2    31 1
    35     2    32 1
    36     2    33 1
    37     7    34 1
    38     9    35 1
    39    10    36 1
    40    12    37 1
    41    13    38 1
    42    16    39 1
    43    17    40 1
    44    20    41 1
    45    20    42 1
    46    21    43 1
    47    21    44 1
    48    22    45 1
    49    22    46 1
    50    23    47 1
    51    23    48 1
    52    24    49 1
    53    24    50 1
    54    26    51 1
@<TRIPOS>SUBSTRUCTURE
     1 AY6         1 TEMP              0 ****  ****    0 ROOT
