@<TRIPOS>MOLECULE
molecule
   45    47     1     0     0
SMALL
bcc


@<TRIPOS>ATOM
      1 C1           0.0000     0.0000     0.0000 cp         1 AY8      -0.103000
      2 C2           1.3940     0.0000     0.0000 ca         1 AY8      -0.127000
      3 C3          -0.6920     0.0050     1.2090 ca         1 AY8      -0.061000
      4 C4           0.0060     0.0050     2.4000 ca         1 AY8      -0.072300
      5 C5           1.3890    -0.0010     2.3950 ca         1 AY8      -0.064000
      6 C6           2.0810     0.0000     1.1970 ca         1 AY8      -0.165000
      7 C7          -0.7410     0.0110     3.7090 c3         1 AY8       0.332700
      8 C14         -0.7440     0.0010    -1.2840 cp         1 AY8      -0.001000
      9 C15         -2.1370     0.0020    -3.6810 ca         1 AY8      -0.143000
     10 C16         -2.4540    -0.9160    -2.6960 ca         1 AY8      -0.148000
     11 C17         -1.7640    -0.9210    -1.5010 ca         1 AY8      -0.111000
     12 C18         -0.4280     0.9310    -2.2780 ca         1 AY8       0.118100
     13 C19         -1.1290     0.9250    -3.4730 ca         1 AY8      -0.116300
     14 C21         -0.7920     1.9260    -4.5490 c3         1 AY8      -0.016400
     15 C22         -2.0220     2.7830    -4.8520 c3         1 AY8      -0.070900
     16 C23         -1.6790     3.7980    -5.9430 c3         1 AY8      -0.080900
     17 C24         -1.2500     3.0590    -7.2120 c3         1 AY8      -0.079400
     18 C25         -0.0180     2.2010    -6.9090 c3         1 AY8      -0.080900
     19 C26         -0.3610     1.1850    -5.8170 c3         1 AY8      -0.070900
     20 P8          -1.0100     1.7330     4.2480 p5         1 AY8       0.967700
     21 O9          -1.6620     1.7380     5.5760 o          1 AY8      -0.868500
     22 O10          0.4060     2.4920     4.3420 o          1 AY8      -0.868500
     23 O11         -1.9540     2.4860     3.1820 o          1 AY8      -0.868500
     24 F12         -1.9750    -0.6240     3.5450 f          1 AY8      -0.268300
     25 F13          0.0090    -0.6680     4.6770 f          1 AY8      -0.268300
     26 O20          0.5620     1.8390    -2.0730 oh         1 AY8      -0.527100
     27 H1           1.9370    -0.0020    -0.9370 ha         1 AY8       0.106000
     28 H2          -1.7750     0.0070     1.2140 ha         1 AY8       0.155000
     29 H3           1.9330    -0.0010     3.3320 ha         1 AY8       0.153000
     30 H4           3.1640    -0.0020     1.1980 ha         1 AY8       0.100000
     31 H5          -2.6830    -0.0000    -4.6160 ha         1 AY8       0.110000
     32 H6          -3.2470    -1.6360    -2.8640 ha         1 AY8       0.111000
     33 H7          -2.0160    -1.6420    -0.7320 ha         1 AY8       0.143000
     34 H8           0.0170     2.5640    -4.2140 hc         1 AY8       0.070700
     35 H9          -2.3240     3.3090    -3.9540 hc         1 AY8       0.044700
     36 H10         -2.8290     2.1470    -5.1930 hc         1 AY8       0.044700
     37 H11         -0.8690     4.4320    -5.6040 hc         1 AY8       0.034700
     38 H12         -2.5520     4.4040    -6.1580 hc         1 AY8       0.034700
     39 H13         -1.0050     3.7790    -7.9830 hc         1 AY8       0.028700
     40 H14         -2.0580     2.4210    -7.5480 hc         1 AY8       0.028700
     41 H15          0.2850     1.6770    -7.8070 hc         1 AY8       0.034700
     42 H16          0.7880     2.8380    -6.5660 hc         1 AY8       0.034700
     43 H17         -1.1720     0.5520    -6.1570 hc         1 AY8       0.044700
     44 H18          0.5110     0.5800    -5.6020 hc         1 AY8       0.044700
     45 H21          0.2120     2.5900    -1.6240 ho         1 AY8       0.436000
@<TRIPOS>BOND
     1    21    20 1
     2    25     7 1
     3    23    20 1
     4    20     7 1
     5    20    22 1
     6     7    24 1
     7     7     4 1
     8     5     4 ar
     9     5     6 ar
    10     4     3 ar
    11     6     2 ar
    12     3     1 ar
    13     2     1 ar
    14     1     8 1
    15     8    11 ar
    16     8    12 ar
    17    26    12 1
    18    11    10 ar
    19    12    13 ar
    20    10     9 ar
    21    13     9 ar
    22    13    14 1
    23    15    14 1
    24    15    16 1
    25    14    19 1
    26    19    18 1
    27    16    17 1
    28    17    18 1
    29     2    27 1
    30     3    28 1
    31     5    29 1
    32     6    30 1
    33     9    31 1
    34    10    32 1
    35    11    33 1
    36    14    34 1
    37    15    35 1
    38    15    36 1
    39    16    37 1
    40    16    38 1
    41    17    39 1
    42    17    40 1
    43    18    41 1
    44    18    42 1
    45    19    43 1
    46    19    44 1
    47    26    45 1
@<TRIPOS>SUBSTRUCTURE
     1 AY8         1 TEMP              0 ****  ****    0 ROOT
