@<TRIPOS>MOLECULE
molecule
   18    18     1     0     0
SMALL
bcc


@<TRIPOS>ATOM
      1 C1           0.0000     0.0000     0.0000 c3         1 AY9       0.047400
      2 C2           1.5160     0.0000     0.0000 c          1 AY9       0.517300
      3 C3           2.1860     0.0000     1.3130 ce         1 AY9       0.001900
      4 C4           1.4600     0.2230     2.4130 c2         1 AY9      -0.195200
      5 C5          -0.0220     0.4640     2.3500 c3         1 AY9       0.180300
      6 C6          -0.3950     1.5480     3.3630 c3         1 AY9       0.152400
      7 O2           2.1500    -0.0000    -1.0350 o          1 AY9      -0.486100
      8 O3           3.5240    -0.2250     1.4050 oh         1 AY9      -0.498100
      9 O5          -0.4230     0.8840     1.0470 os         1 AY9      -0.388600
     10 O6          -1.8150     1.7020     3.3940 oh         1 AY9      -0.599800
     11 H11C        -0.3680    -1.0010     0.1930 h1         1 AY9       0.079200
     12 H12C        -0.3680     0.3570    -0.9540 h1         1 AY9       0.079200
     13 H4           1.9520     0.2230     3.3780 ha         1 AY9       0.146000
     14 H3           3.6790    -1.1400     1.5690 ho         1 AY9       0.421000
     15 H5          -0.5390    -0.4540     2.5990 h1         1 AY9       0.063700
     16 H61C         0.0630     2.4860     3.0740 h1         1 AY9       0.035700
     17 H62C        -0.0420     1.2610     4.3460 h1         1 AY9       0.035700
     18 H6          -2.0480     2.3490     4.0390 ho         1 AY9       0.406000
@<TRIPOS>BOND
     1     1     2 1
     2     1     9 1
     3     2     3 1
     4     2     7 2
     5     3     4 2
     6     3     8 1
     7     4     5 1
     8     5     6 1
     9     5     9 1
    10     6    10 1
    11     1    11 1
    12     1    12 1
    13     4    13 1
    14     8    14 1
    15     5    15 1
    16     6    16 1
    17     6    17 1
    18    10    18 1
@<TRIPOS>SUBSTRUCTURE
     1 AY9         1 TEMP              0 ****  ****    0 ROOT
