@<TRIPOS>MOLECULE
AY9
   18    18     1     0     0
SMALL
bcc


@<TRIPOS>ATOM
      1 C1         -0.0010    0.1800    0.1400 c3        1 AY9      0.043400
      2 C2          1.4770   -0.1180    0.1090 c         1 AY9      0.522300
      3 C3          2.1440   -0.1400    1.4320 ce        1 AY9     -0.004100
      4 C4          1.4630    0.1240    2.5650 c2        1 AY9     -0.193200
      5 C5          0.0120    0.4530    2.5150 c3        1 AY9      0.128300
      6 C6         -0.3550    1.5420    3.5330 c3        1 AY9      0.142400
      7 O2          2.0910   -0.3660   -0.9330 o         1 AY9     -0.519100
      8 O3          3.4830   -0.4420    1.4980 oh        1 AY9     -0.488100
      9 O5         -0.3830    0.9850    1.2410 os        1 AY9     -0.414600
     10 O6         -1.7520    1.7200    3.6000 oh        1 AY9     -0.594800
     11 H11C       -0.3070    0.7790   -0.7610 h1        1 AY9      0.085700
     12 H12C       -0.5600   -0.7960    0.1590 h1        1 AY9      0.085700
     13 H4          1.9420    0.0940    3.5540 ha        1 AY9      0.161000
     14 H3          3.7940   -0.5970    0.5890 ho        1 AY9      0.439000
     15 H5         -0.5980   -0.4760    2.7150 h1        1 AY9      0.068700
     16 H61C       -0.0490    1.2150    4.5620 h1        1 AY9      0.060200
     17 H62C        0.1540    2.5040    3.2620 h1        1 AY9      0.060200
     18 H6         -2.0450    1.9960    2.7210 ho        1 AY9      0.414000
@<TRIPOS>BOND
     1    1    2 1   
     2    1    9 1   
     3    1   11 1   
     4    1   12 1   
     5    2    3 1   
     6    2    7 2   
     7    3    4 2   
     8    3    8 1   
     9    4    5 1   
    10    4   13 1   
    11    5    6 1   
    12    5    9 1   
    13    5   15 1   
    14    6   10 1   
    15    6   16 1   
    16    6   17 1   
    17    8   14 1   
    18   10   18 1   
@<TRIPOS>SUBSTRUCTURE
     1 AY9         1 TEMP              0 ****  ****    0 ROOT
