@<TRIPOS>MOLECULE
molecule
   70    72     1     0     0
SMALL
bcc


@<TRIPOS>ATOM
      1 C4           0.0000     0.0000     0.0000 ca         1 AYB       0.440800
      2 C5           1.4050     0.0000     0.0000 ca         1 AYB      -0.156200
      3 C6           2.0690     0.0000     1.2390 ca         1 AYB       0.772200
      4 C8           0.7590    -0.0120    -2.0700 cc         1 AYB       0.449700
      5 N1           1.3370     0.0010     2.3480 nb         1 AYB      -0.769000
      6 N3          -0.6450     0.0020     1.1620 nb         1 AYB      -0.748000
      7 CAA          7.7260   -12.8240    -8.5230 c3         1 AYB      -0.089100
      8 CAJ          7.2430   -11.3870    -8.3090 c3         1 AYB      -0.089400
      9 CAO          5.8020   -11.2540    -8.8030 c3         1 AYB       0.167400
     10 OAW          5.3440    -9.8920    -8.6010 os         1 AYB      -0.440900
     11 CBA          4.0860    -9.6050    -8.9870 c          1 AYB       0.754100
     12 OAD          3.3900   -10.4710    -9.4790 o          1 AYB      -0.612000
     13 NAV          3.5980    -8.3610    -8.8210 ns         1 AYB      -0.578900
     14 CAP          2.2270    -8.0510    -9.2340 c3         1 AYB       0.135000
     15 CAM          1.9240    -6.5800    -8.9380 c3         1 AYB      -0.098400
     16 CB           0.1910    -4.7870    -9.0740 c3         1 AYB      -0.104400
     17 CA          -1.2410    -4.4630    -9.5060 c3         1 AYB       0.012500
     18 N           -1.3560    -4.5980   -10.9640 nz         1 AYB      -0.855600
     19 C           -1.5800    -3.0510    -9.1030 c          1 AYB       0.677100
     20 O           -1.5320    -2.1620    -9.9200 o          1 AYB      -0.470000
     21 OAY         -1.9360    -2.7810    -7.8380 os         1 AYB      -0.500500
     22 PBL         -2.2840    -1.2480    -7.4870 p5         1 AYB       1.294800
     23 OAI         -3.5970    -0.7960    -8.3010 o          1 AYB      -0.757500
     24 OAF         -1.1440    -0.3850    -7.8690 o          1 AYB      -0.757500
     25 O5'         -2.5560    -1.1070    -5.9070 os         1 AYB      -0.608200
     26 C5'         -2.7880     0.1480    -5.2660 c3         1 AYB       0.261400
     27 C4'         -3.0100    -0.0770    -3.7690 c3         1 AYB       0.100100
     28 O4'         -1.8000    -0.5570    -3.1620 os         1 AYB      -0.390600
     29 C3'         -3.3680     1.2580    -3.0860 c3         1 AYB      -0.387900
     30 O3'         -4.6570     1.1780    -2.4750 oh         1 AYB      -0.606800
     31 C2'         -2.2690     1.4400    -2.0110 c3         1 AYB       0.085100
     32 O2'         -2.8250     1.9420    -0.7930 oh         1 AYB      -0.541800
     33 C1'         -1.7520    -0.0100    -1.8260 c3         1 AYB       0.195800
     34 N9          -0.3780    -0.0070    -1.3180 na         1 AYB      -0.251000
     35 N7           1.8050    -0.0020    -1.2940 nd         1 AYB      -0.586100
     36 C2           0.0180     0.0010     2.2990 ca         1 AYB       0.698900
     37 N6           3.4510    -0.0010     1.3020 nv         1 AYB      -1.071500
     38 H8           0.7880    -0.0220    -3.1530 h5         1 AYB       0.098800
     39 HAA          8.7470   -12.9180    -8.1730 hc         1 AYB       0.040033
     40 HAAA         7.0900   -13.5040    -7.9690 hc         1 AYB       0.040033
     41 HAAB         7.6810   -13.0660    -9.5780 hc         1 AYB       0.040033
     42 HAJ          7.2870   -11.1450    -7.2550 hc         1 AYB       0.054200
     43 HAJA         7.8790   -10.7070    -8.8630 hc         1 AYB       0.054200
     44 HAO          5.7580   -11.4970    -9.8580 h1         1 AYB       0.051700
     45 HAOA         5.1670   -11.9350    -8.2500 h1         1 AYB       0.051700
     46 HNAV         4.1700    -7.6480    -8.4130 hn         1 AYB       0.327500
     47 HAP          2.1190    -8.2360   -10.2960 h1         1 AYB       0.053700
     48 HAPA         1.5340    -8.6790    -8.6870 h1         1 AYB       0.053700
     49 HAM          2.0320    -6.3960    -7.8760 hc         1 AYB       0.063200
     50 HAMA         2.6170    -5.9520    -9.4860 hc         1 AYB       0.063200
     51 HAN          0.3840    -6.4410   -10.4320 hc         1 AYB       0.039200
     52 HANA        -0.2010    -6.8850    -8.8220 hc         1 AYB       0.039200
     53 HB           0.8840    -4.1590    -9.6210 hc         1 AYB       0.102200
     54 HBA          0.2980    -4.6030    -8.0120 hc         1 AYB       0.102200
     55 HA          -1.9270    -5.1500    -9.0250 hx         1 AYB       0.125700
     56 HN          -2.0060    -5.2500   -10.5730 hn         1 AYB       0.482133
     57 HNA         -0.5620    -5.0160   -11.4080 hn         1 AYB       0.482133
     58 H5'         -3.6660     0.6170    -5.6950 h1         1 AYB       0.071200
     59 H5'A        -1.9280     0.7920    -5.4100 h1         1 AYB       0.071200
     60 H4'         -3.8080    -0.7930    -3.6130 h1         1 AYB       0.061700
     61 H3'         -3.8310     0.2790    -3.1230 h1         1 AYB       0.412700
     62 HO3'        -4.6470     1.8890    -3.0940 ho         1 AYB       0.511000
     63 H2'         -1.4790     2.0850    -2.3760 h1         1 AYB       0.078700
     64 HO2'        -2.1400     2.5160    -1.0940 ho         1 AYB       0.417000
     65 H1'         -2.4080    -0.5650    -1.1660 h2         1 AYB       0.100700
     66 H2          -0.6360    -0.1680     3.1460 h5         1 AYB       0.064100
     67 HN6          3.9510     0.8660     1.3410 hn         1 AYB       0.442800
     68 HN6A         3.9490    -0.8680     1.3420 hn         1 AYB       0.442800
     69 HN3         -1.7540    -3.8040   -11.4260 hn         1 AYB       0.482133
     70 CAN          0.4920    -6.2570    -9.3700 c3         1 AYB      -0.095400
@<TRIPOS>BOND
     1     1     2 ar
     2     1     6 ar
     3     1    34 1
     4     2     3 ar
     5     2    35 1
     6     3     5 ar
     7     3    37 1
     8     4    34 1
     9     4    35 2
    10     5    36 ar
    11     6    36 ar
    12     7     8 1
    13     8     9 1
    14     9    10 1
    15    10    11 1
    16    11    12 2
    17    11    13 1
    18    13    14 1
    19    14    15 1
    20    15    70 1
    21    70    16 1
    22    16    17 1
    23    17    18 1
    24    17    19 1
    25    19    20 2
    26    19    21 1
    27    21    22 1
    28    22    23 1
    29    22    24 1
    30    22    25 1
    31    25    26 1
    32    26    27 1
    33    27    28 1
    34    27    29 1
    35    28    33 1
    36    29    30 1
    37    29    31 1
    38    31    32 1
    39    31    33 1
    40    33    34 1
    41     4    38 1
    42     7    39 1
    43     7    40 1
    44     7    41 1
    45     8    42 1
    46     8    43 1
    47     9    44 1
    48     9    45 1
    49    13    46 1
    50    14    47 1
    51    14    48 1
    52    15    49 1
    53    15    50 1
    54    70    51 1
    55    70    52 1
    56    16    53 1
    57    16    54 1
    58    17    55 1
    59    18    56 1
    60    18    57 1
    61    26    58 1
    62    26    59 1
    63    27    60 1
    64    29    61 1
    65    30    62 1
    66    31    63 1
    67    32    64 1
    68    33    65 1
    69    36    66 1
    70    37    67 1
    71    37    68 1
    72    69    18 1
@<TRIPOS>SUBSTRUCTURE
     1 AYB         1 TEMP              0 ****  ****    0 ROOT
