@<TRIPOS>MOLECULE
AYC
   25    24     1     0     0
SMALL
bcc


@<TRIPOS>ATOM
      1 OAD          0.0000     0.0000     0.0000 o          1 AYC      -0.665100
      2 CAQ          1.2130     0.0000     0.0000 c          1 AYC       0.566100
      3 CAB          1.9660     0.0000     1.3050 c3         1 AYC      -0.068100
      4 NAP          1.8870    -0.0060    -1.1670 ns         1 AYC      -0.180900
      5 CAR          1.1540    -0.0120    -2.4360 c3         1 AYC      -0.093300
      6 CAA          0.7900    -1.4510    -2.8080 c3         1 AYC       0.003900
      7 CAU          2.0190     0.5830    -3.5170 c          1 AYC       0.597100
      8 CAM          1.3890     1.1090    -4.7810 c3         1 AYC      -0.100400
      9 CAL          2.4790     1.6530    -5.7060 c3         1 AYC      -0.128400
     10 CAS          1.8490     2.1800    -6.9700 c          1 AYC       0.978600
     11 OAG          2.6190     2.7090    -7.9330 o          1 AYC      -0.903300
     12 OAE          0.6510     2.1240    -7.1170 o          1 AYC      -0.903300
     13 OXT          3.2170     0.6380    -3.3720 o          1 AYC      -0.579100
     14 HAB1         2.5730     0.8940     1.3710 hc         1 AYC       0.018033
     15 HAB2         2.6040    -0.8740     1.3540 hc         1 AYC       0.018033
     16 HAB3         1.2620    -0.0200     2.1280 hc         1 AYC       0.018033
     17 HAP          2.8870     0.0170    -1.1670 hn         1 AYC       0.191500
     18 HAR          0.2490     0.5750    -2.3330 h1         1 AYC       0.070700
     19 HAA1         1.1250    -2.1220    -2.0260 hc         1 AYC       0.010367
     20 HAA2         1.2720    -1.7160    -3.7410 hc         1 AYC       0.010367
     21 HAA3        -0.2840    -1.5340    -2.9200 hc         1 AYC       0.010367
     22 HAM1         0.8590     0.3070    -5.2810 hc         1 AYC       0.046700
     23 HAM2         0.6940     1.9030    -4.5350 hc         1 AYC       0.046700
     24 HAL1         3.1740     0.8590    -5.9530 hc         1 AYC       0.016700
     25 HAL2         3.0100     2.4550    -5.2060 hc         1 AYC       0.016700
@<TRIPOS>BOND
     1     1     2 2   
     2     2     3 1   
     3     2     4 1   
     4     3    14 1   
     5     3    15 1   
     6     3    16 1   
     7     4     5 1   
     8     4    17 1   
     9     5     6 1   
    10     5     7 1   
    11     5    18 1   
    12     6    19 1   
    13     6    20 1   
    14     6    21 1   
    15     7     8 1   
    16     7    13 2   
    17     8     9 1   
    18     8    22 1   
    19     8    23 1   
    20     9    10 1   
    21     9    24 1   
    22     9    25 1   
    23    10    11 1   
    24    10    12 1   
@<TRIPOS>SUBSTRUCTURE
     1 AYC         1 TEMP              0 ****  ****    0 ROOT
