@<TRIPOS>MOLECULE
molecule
   41    41     1     0     0
SMALL
bcc


@<TRIPOS>ATOM
      1 N1'          0.0000     0.0000     0.0000 nb         1 AYD      -0.788000
      2 C2'          1.3180     0.0000     0.0000 ca         1 AYD       0.636300
      3 CM2          2.0510    -0.0010    -1.3160 c3         1 AYD      -0.102400
      4 N3'          2.0130     0.0000     1.1190 nb         1 AYD      -0.835000
      5 C4'          1.3990     0.0010     2.2990 ca         1 AYD       0.739200
      6 N4'          2.1320     0.0010     3.4750 nv         1 AYD      -1.005500
      7 C5'          0.0020     0.0010     2.3340 ca         1 AYD      -0.472900
      8 C6'         -0.6830     0.0010     1.1360 ca         1 AYD       0.455200
      9 C7'         -0.7370     0.0010     3.6470 c3         1 AYD       0.316100
     10 N3          -0.7680     1.3610     4.1900 nu         1 AYD      -0.850000
     11 C5          -1.4270     2.8370     5.8910 c2         1 AYD      -0.251200
     12 C4          -1.3990     1.6110     5.4020 c2         1 AYD       0.075800
     13 CM4         -2.0540     0.4840     6.1580 c3         1 AYD      -0.045900
     14 C6          -2.2160     3.1320     7.1410 c3         1 AYD      -0.048200
     15 C7          -1.3010     3.7900     8.1770 c3         1 AYD       0.238400
     16 O7          -2.0490     4.0690     9.3620 os         1 AYD      -0.607200
     17 PA          -1.4030     4.7630    10.6640 p5         1 AYD       1.431800
     18 O1A         -0.2250     3.9840    11.1040 o          1 AYD      -0.861000
     19 O2A         -0.9470     6.2650    10.3010 o          1 AYD      -0.861000
     20 O3A         -2.4930     4.8050    11.8470 os         1 AYD      -0.716800
     21 PB          -2.4120     5.0670    13.4340 p5         1 AYD       1.313900
     22 O1B         -1.2110     4.3990    13.9830 o          1 AYD      -0.861833
     23 O2B         -2.3200     6.6500    13.7120 o          1 AYD      -0.861833
     24 O3B         -3.7300     4.4730    14.1440 o          1 AYD      -0.861833
     25 HM21         2.2030     1.0200    -1.6450 hc         1 AYD       0.036033
     26 HM22         1.4660    -0.5350    -2.0550 hc         1 AYD       0.036033
     27 HM23         3.0110    -0.4880    -1.1950 hc         1 AYD       0.036033
     28 H4'1         3.1310     0.0510     3.4420 hn         1 AYD       0.441300
     29 H4'2         1.6650    -0.0850     4.3560 hn         1 AYD       0.441300
     30 H6'         -1.7540    -0.1590     1.1240 h4         1 AYD       0.010100
     31 H7'1        -0.2310    -0.6550     4.3450 h1         1 AYD       0.019700
     32 H7'2        -1.7500    -0.3490     3.4910 h1         1 AYD       0.019700
     33 HN3         -0.3450     2.1130     3.6820 hn         1 AYD       0.433800
     34 H5          -0.9570     3.6470     5.3460 ha         1 AYD       0.112000
     35 HM41        -1.5880     0.3830     7.1300 hc         1 AYD       0.040700
     36 HM42        -3.1090     0.6980     6.2840 hc         1 AYD       0.040700
     37 HM43        -1.9370    -0.4390     5.6030 hc         1 AYD       0.040700
     38 H61         -3.0330     3.8010     6.9040 hc         1 AYD       0.040700
     39 H62         -2.6110     2.2070     7.5450 hc         1 AYD       0.040700
     40 H71         -0.9050     4.7140     7.7740 h1         1 AYD       0.017700
     41 H72         -0.4840     3.1200     8.4150 h1         1 AYD       0.017700
@<TRIPOS>BOND
     1     1     2 ar
     2     1     8 ar
     3     2     3 1
     4     2     4 ar
     5     3    25 1
     6     3    26 1
     7     3    27 1
     8     4     5 ar
     9     5     6 1
    10     5     7 ar
    11     6    28 1
    12     6    29 1
    13     7     8 ar
    14     7     9 1
    15     8    30 1
    16     9    10 1
    17     9    31 1
    18     9    32 1
    19    10    12 1
    20    10    33 1
    21    11    12 2
    22    11    14 1
    23    11    34 1
    24    12    13 1
    25    13    35 1
    26    13    36 1
    27    13    37 1
    28    14    15 1
    29    14    38 1
    30    14    39 1
    31    15    16 1
    32    15    40 1
    33    15    41 1
    34    16    17 1
    35    17    18 1
    36    17    19 1
    37    17    20 1
    38    20    21 1
    39    21    22 1
    40    21    23 1
    41    21    24 1
@<TRIPOS>SUBSTRUCTURE
     1 AYD         1 TEMP              0 ****  ****    0 ROOT
