@<TRIPOS>MOLECULE
molecule
   12    11     1     0     0
SMALL
bcc


@<TRIPOS>ATOM
      1 C2           0.0000     0.0000     0.0000 c2         1 AYE      -0.288200
      2 C3           1.3090     0.0000     0.0000 c2         1 AYE      -0.092000
      3 C1          -0.7540     0.0000     1.3050 c3         1 AYE       0.142000
      4 N1          -1.6870     1.1350     1.3310 nz         1 AYE      -0.809600
      5 H2          -0.5410    -0.0000    -0.9380 ha         1 AYE       0.159000
      6 H3           1.8510    -0.0000    -0.9380 ha         1 AYE       0.146000
      7 H3A          1.8510     0.0000     0.9380 ha         1 AYE       0.146000
      8 H1          -1.3090    -0.9260     1.4020 hx         1 AYE       0.112700
      9 H1A         -0.0540     0.0890     2.1270 hx         1 AYE       0.112700
     10 HN1         -2.3790     1.0140     0.6170 hn         1 AYE       0.457467
     11 HN1A        -2.1350     1.1780     2.2250 hn         1 AYE       0.457467
     12 H13         -1.1840     1.9840     1.1680 hn         1 AYE       0.457467
@<TRIPOS>BOND
     1     1     2 2
     2     1     3 1
     3     3     4 1
     4     1     5 1
     5     2     6 1
     6     2     7 1
     7     3     8 1
     8     3     9 1
     9     4    10 1
    10     4    11 1
    11    12     4 1
@<TRIPOS>SUBSTRUCTURE
     1 AYE         1 TEMP              0 ****  ****    0 ROOT
