@<TRIPOS>MOLECULE
molecule
   83    84     1     0     0
SMALL
bcc


@<TRIPOS>ATOM
      1 N1           0.0000     0.0000     0.0000 ns         1 AYH      -0.578900
      2 C3           1.4650     0.0000     0.0000 c3         1 AYH       0.117700
      3 C5           1.9750     0.0000     1.4430 c3         1 AYH       0.121100
      4 O7           1.4990     1.1670     2.1160 oh         1 AYH      -0.620800
      5 C9           1.4650    -1.2490     2.1640 c3         1 AYH      -0.068400
      6 C12          2.0840    -1.3200     3.5610 c3         1 AYH      -0.153700
      7 C14          1.4530    -2.4740     4.3410 c3         1 AYH      -0.087100
      8 C18          3.5700    -1.5480     3.4420 c          1 AYH       0.656100
      9 O19          4.0830    -1.6440     2.3470 o          1 AYH      -0.617100
     10 N20          4.3280    -1.6440     4.5520 ns         1 AYH      -0.585900
     11 C22          5.7710    -1.8650     4.4360 c3         1 AYH       0.109000
     12 C25          6.3900    -1.9360     5.8340 c3         1 AYH      -0.101400
     13 C28          7.8970    -2.1660     5.7120 c3         1 AYH      -0.080400
     14 C31          8.5170    -2.2360     7.1100 c3         1 AYH      -0.092100
     15 C35          1.9750     1.2490    -0.7210 c3         1 AYH      -0.052100
     16 C38          1.5770     1.1890    -2.1740 ca         1 AYH      -0.065300
     17 C39          0.3710     1.7280    -2.5820 ca         1 AYH      -0.117500
     18 C41          0.0050     1.6720    -3.9140 ca         1 AYH      -0.121000
     19 C43          0.8460     1.0780    -4.8370 ca         1 AYH      -0.127000
     20 C45          2.0510     0.5410    -4.4290 ca         1 AYH      -0.121000
     21 C47          2.4190     0.6000    -3.0970 ca         1 AYH      -0.117500
     22 C49         -0.6740    -0.4930    -1.0580 c          1 AYH       0.655100
     23 O50         -0.0670    -0.9370    -2.0100 o          1 AYH      -0.597100
     24 C51         -2.1810    -0.4930    -1.0570 c3         1 AYH      -0.143700
     25 C53         -2.6910    -1.1030    -2.3650 c3         1 AYH      -0.055400
     26 C56         -4.2210    -1.1020    -2.3650 c3         1 AYH      -0.079700
     27 C58         -4.7310    -1.9300    -1.1840 c3         1 AYH      -0.079400
     28 C61         -4.2210    -1.3200     0.1240 c3         1 AYH      -0.080400
     29 C64         -2.6910    -1.3210     0.1240 c3         1 AYH      -0.074400
     30 C67         -4.7310    -1.7120    -3.6720 c3         1 AYH       0.131400
     31 N68         -6.1910    -1.6040    -3.7240 ns         1 AYH      -0.581900
     32 C70         -6.8640    -2.0770    -4.7910 c          1 AYH       0.657100
     33 O71         -6.2610    -2.5940    -5.7090 o          1 AYH      -0.614100
     34 C72         -8.3660    -1.9660    -4.8460 c3         1 AYH      -0.173100
     35 C76         -4.1210    -0.9610    -4.8570 c3         1 AYH      -0.106600
     36 C80         -4.3260    -3.1850    -3.7400 c3         1 AYH      -0.106600
     37 HN1         -0.5000     0.4030     0.7670 hn         1 AYH       0.321500
     38 H3           1.8260    -0.8840    -0.5110 h1         1 AYH       0.093700
     39 H5           3.0580     0.0000     1.4430 h1         1 AYH       0.076700
     40 HO7          2.2310     1.6560     2.4520 ho         1 AYH       0.404000
     41 H9           1.7450    -2.1310     1.6000 hc         1 AYH       0.064200
     42 H9A          0.3860    -1.2020     2.2490 hc         1 AYH       0.064200
     43 H12          1.9030    -0.3890     4.0840 hc         1 AYH       0.070700
     44 H14          1.3950    -2.2120     5.3900 hc         1 AYH       0.041700
     45 H14A         0.4560    -2.6650     3.9610 hc         1 AYH       0.041700
     46 H14B         2.0600    -3.3640     4.2240 hc         1 AYH       0.041700
     47 HN20         3.9090    -1.5370     5.4550 hn         1 AYH       0.314500
     48 H22          6.2180    -1.0470     3.8840 h1         1 AYH       0.054200
     49 H22A         5.9520    -2.7960     3.9130 h1         1 AYH       0.054200
     50 H25          6.2080    -1.0050     6.3570 hc         1 AYH       0.044700
     51 H25A         5.9440    -2.7530     6.3860 hc         1 AYH       0.044700
     52 H28          8.0790    -3.0970     5.1890 hc         1 AYH       0.045200
     53 H28A         8.3440    -1.3480     5.1600 hc         1 AYH       0.045200
     54 H31          9.5760    -2.4470     7.0250 hc         1 AYH       0.035033
     55 H31A         8.3770    -1.2890     7.6150 hc         1 AYH       0.035033
     56 H31B         8.0370    -3.0230     7.6790 hc         1 AYH       0.035033
     57 H35          1.5430     2.1310    -0.2640 hc         1 AYH       0.053700
     58 H35A         3.0550     1.2950    -0.6440 hc         1 AYH       0.053700
     59 H39         -0.2870     2.1920    -1.8580 ha         1 AYH       0.123000
     60 H41         -0.9410     2.0940    -4.2340 ha         1 AYH       0.123000
     61 H43          0.5590     1.0340    -5.8810 ha         1 AYH       0.124000
     62 H45          2.7100     0.0780    -5.1530 ha         1 AYH       0.123000
     63 H47          3.3650     0.1780    -2.7780 ha         1 AYH       0.123000
     64 H51         -2.5460     0.5220    -0.9680 hc         1 AYH       0.062700
     65 H53         -2.3310    -2.1210    -2.4530 hc         1 AYH       0.067200
     66 H53A        -2.3310    -0.5140    -3.2010 hc         1 AYH       0.067200
     67 H56         -4.5800    -0.0840    -2.2720 hc         1 AYH       0.049700
     68 H58         -5.8140    -1.9270    -1.1830 hc         1 AYH       0.045700
     69 H58A        -4.3670    -2.9460    -1.2730 hc         1 AYH       0.045700
     70 H61         -4.5810    -1.9080     0.9590 hc         1 AYH       0.041200
     71 H61A        -4.5800    -0.3020     0.2100 hc         1 AYH       0.041200
     72 H64         -2.3320    -2.3390     0.0320 hc         1 AYH       0.045700
     73 H64A        -2.3310    -0.8870     1.0490 hc         1 AYH       0.045700
     74 HN68        -6.6860    -1.1550    -2.9800 hn         1 AYH       0.309500
     75 H72         -8.7960    -2.4630    -3.9840 hc         1 AYH       0.059033
     76 H72A        -8.6510    -0.9210    -4.8400 hc         1 AYH       0.059033
     77 H72B        -8.7300    -2.4360    -5.7510 hc         1 AYH       0.059033
     78 H76         -3.0730    -1.2200    -4.9470 hc         1 AYH       0.049367
     79 H76A        -4.2160     0.1060    -4.6970 hc         1 AYH       0.049367
     80 H76B        -4.6410    -1.2380    -5.7670 hc         1 AYH       0.049367
     81 H80         -4.3330    -3.5150    -4.7720 hc         1 AYH       0.049367
     82 H80A        -3.3310    -3.3060    -3.3290 hc         1 AYH       0.049367
     83 H80B        -5.0280    -3.7790    -3.1670 hc         1 AYH       0.049367
@<TRIPOS>BOND
     1     1     2 1
     2     1    22 1
     3     2     3 1
     4     2    15 1
     5     3     4 1
     6     3     5 1
     7     5     6 1
     8     6     7 1
     9     6     8 1
    10     8     9 2
    11     8    10 1
    12    10    11 1
    13    11    12 1
    14    12    13 1
    15    13    14 1
    16    15    16 1
    17    16    17 ar
    18    16    21 ar
    19    17    18 ar
    20    18    19 ar
    21    19    20 ar
    22    20    21 ar
    23    22    23 2
    24    22    24 1
    25    24    25 1
    26    24    29 1
    27    25    26 1
    28    26    27 1
    29    26    30 1
    30    27    28 1
    31    28    29 1
    32    30    31 1
    33    30    35 1
    34    30    36 1
    35    31    32 1
    36    32    33 2
    37    32    34 1
    38     1    37 1
    39     2    38 1
    40     3    39 1
    41     4    40 1
    42     5    41 1
    43     5    42 1
    44     6    43 1
    45     7    44 1
    46     7    45 1
    47     7    46 1
    48    10    47 1
    49    11    48 1
    50    11    49 1
    51    12    50 1
    52    12    51 1
    53    13    52 1
    54    13    53 1
    55    14    54 1
    56    14    55 1
    57    14    56 1
    58    15    57 1
    59    15    58 1
    60    17    59 1
    61    18    60 1
    62    19    61 1
    63    20    62 1
    64    21    63 1
    65    24    64 1
    66    25    65 1
    67    25    66 1
    68    26    67 1
    69    27    68 1
    70    27    69 1
    71    28    70 1
    72    28    71 1
    73    29    72 1
    74    29    73 1
    75    31    74 1
    76    34    75 1
    77    34    76 1
    78    34    77 1
    79    35    78 1
    80    35    79 1
    81    35    80 1
    82    36    81 1
    83    36    82 1
    84    36    83 1
@<TRIPOS>SUBSTRUCTURE
     1 AYH         1 TEMP              0 ****  ****    0 ROOT
