@<TRIPOS>MOLECULE
AYJ
   34    34     1     0     0
SMALL
bcc


@<TRIPOS>ATOM
      1 N1           0.0000     0.0000     0.0000 n3         1 AYJ      -0.527500
      2 C4           1.4650     0.0000     0.0000 c3         1 AYJ       0.190500
      3 C5           1.9750     0.0000     1.4430 c3         1 AYJ      -0.042400
      4 C6           3.5050     0.0010     1.4430 c3         1 AYJ      -0.016400
      5 C7           4.0150    -1.2480     0.7220 c3         1 AYJ      -0.027400
      6 C8           3.5060    -1.2490    -0.7210 c3         1 AYJ      -0.016400
      7 C1          -1.1570     0.6530    -2.4020 c3         1 AYJ       0.026700
      8 S1          -0.8270     1.2420    -0.7180 s6         1 AYJ       0.966900
      9 O1          -2.0360     1.3310     0.0250 o          1 AYJ      -0.569800
     10 O2           0.1010     2.3170    -0.7380 o          1 AYJ      -0.569800
     11 C2          -0.7320    -1.1020     0.6280 c3         1 AYJ       0.184800
     12 C3          -0.8760    -0.8330     2.1040 c          1 AYJ       0.275100
     13 O3          -0.4130     0.1810     2.5830 o          1 AYJ      -0.366100
     14 N2          -1.5200    -1.7170     2.8900 nz         1 AYJ       0.199600
     15 C9           1.9760    -1.2490    -0.7210 c3         1 AYJ      -0.042400
     16 H1           1.8310     0.8830    -0.5100 h1         1 AYJ       0.088700
     17 H2           1.6150     0.8860     1.9520 hc         1 AYJ       0.009950
     18 H3           1.6160    -0.8860     1.9520 hc         1 AYJ       0.009950
     19 H4           3.8650    -0.0020     2.4650 hc         1 AYJ       0.027950
     20 H5           3.8650     0.8840     0.9310 hc         1 AYJ       0.027950
     21 H6           5.0980    -1.2460     0.7210 hc         1 AYJ       0.019200
     22 H7           3.6510    -2.1320     1.2320 hc         1 AYJ       0.019200
     23 H8           3.8660    -0.3630    -1.2300 hc         1 AYJ       0.027950
     24 H9           3.8670    -2.1350    -1.2290 hc         1 AYJ       0.027950
     25 H10         -1.2800    -0.4230    -2.3900 h1         1 AYJ       0.070700
     26 H11         -2.0620     1.1170    -2.7750 h1         1 AYJ       0.070700
     27 H12         -0.3260     0.9150    -3.0450 h1         1 AYJ       0.070700
     28 H13         -0.1870    -2.0270     0.4820 h1         1 AYJ       0.054700
     29 H14         -1.7140    -1.1860     0.1790 h1         1 AYJ       0.054700
     30 H15         -1.1750    -2.6390     2.7080 hn         1 AYJ       0.244467
     31 H16         -2.5020    -1.6840     2.6950 hn         1 AYJ       0.244467
     32 H17          1.6170    -2.1330    -0.2090 hc         1 AYJ       0.009950
     33 H18          1.6170    -1.2470    -1.7430 hc         1 AYJ       0.009950
     34 H23         -1.3440    -1.5000     3.8510 hn         1 AYJ       0.244467
@<TRIPOS>BOND
     1     1     2 1   
     2     1     8 1   
     3     1    11 1   
     4     2     3 1   
     5     2    15 1   
     6     2    16 1   
     7     3     4 1   
     8     3    17 1   
     9     3    18 1   
    10     4     5 1   
    11     4    19 1   
    12     4    20 1   
    13     5     6 1   
    14     5    21 1   
    15     5    22 1   
    16     6    15 1   
    17     6    23 1   
    18     6    24 1   
    19     7     8 1   
    20     7    25 1   
    21     7    26 1   
    22     7    27 1   
    23     8     9 2   
    24     8    10 2   
    25    11    12 1   
    26    11    28 1   
    27    11    29 1   
    28    12    13 2   
    29    12    14 1   
    30    14    30 1   
    31    14    31 1   
    32    14    34 1   
    33    15    32 1   
    34    15    33 1   
@<TRIPOS>SUBSTRUCTURE
     1 AYJ         1 TEMP              0 ****  ****    0 ROOT
