@<TRIPOS>MOLECULE
AYK
   71    73     1     0     0
SMALL
bcc


@<TRIPOS>ATOM
      1 C4           0.0000     0.0000     0.0000 ce         1 AYK      -0.095200
      2 C5           1.5150     0.0000     0.0000 c3         1 AYK       0.021800
      3 C6           1.9980     0.0000     1.4530 c3         1 AYK       0.192100
      4 C7          -0.7080    -0.8340    -0.7890 cf         1 AYK      -0.097000
      5 C10         -2.1710    -0.8040    -0.7610 cf         1 AYK      -0.166000
      6 C11         -2.8710    -1.6290    -1.5400 c2         1 AYK      -0.092400
      7 C12         -4.3700    -1.6440    -1.5540 c3         1 AYK      -0.005500
      8 C13         -4.7760    -3.0970    -1.1750 c3         1 AYK      -0.049000
      9 C14         -4.3260    -4.0040    -2.2970 c3         1 AYK      -0.024400
     10 C15         -2.7880    -4.0220    -2.2910 c3         1 AYK      -0.032400
     11 C1           1.4320     1.2170     2.1880 c3         1 AYK      -0.047400
     12 C2          -0.0900     1.0910     2.3030 c3         1 AYK       0.032800
     13 C3          -0.6660     0.9550     0.9110 ce         1 AYK      -0.076200
     14 O9           3.4260     0.0520     1.4800 oh         1 AYK      -0.587800
     15 C16         -2.2030    -2.6200    -2.4850 c3         1 AYK       0.016800
     16 C17         -6.2660    -2.9800    -0.8950 c3         1 AYK      -0.048700
     17 C18         -6.4640    -1.5360    -0.3640 c3         1 AYK      -0.024400
     18 C19         -5.0760    -0.8420    -0.4580 c3         1 AYK      -0.026400
     19 C20         -6.6900    -3.9990     0.1640 c3         1 AYK       0.203800
     20 C21         -8.1900    -3.8640     0.4310 c3         1 AYK      -0.148400
     21 C22         -6.3850    -5.4120    -0.3370 c3         1 AYK      -0.055100
     22 C23         -8.6060    -4.8680     1.4740 c          1 AYK       0.568100
     23 O24         -5.9680    -3.7570     1.3730 oh         1 AYK      -0.571800
     24 N25         -9.8930    -4.9330     1.8710 ns         1 AYK      -0.194900
     25 C26        -10.2980    -5.9090     2.8860 c3         1 AYK       0.015700
     26 C27        -11.5570    -5.4110     3.5990 c3         1 AYK      -0.012100
     27 C28        -10.5910    -7.2510     2.2140 c3         1 AYK      -0.012100
     28 C30         -4.0510    -3.5040     0.1090 c3         1 AYK      -0.071100
     29 O31         -7.7850    -5.6180     1.9580 o          1 AYK      -0.639100
     30 H1           1.8790    -0.8870    -0.5040 hc         1 AYK       0.026700
     31 H2           1.8790     0.8870    -0.5040 hc         1 AYK       0.026700
     32 H3           1.6580    -0.9040     1.9440 h1         1 AYK       0.001700
     33 H4          -0.1930    -1.5270    -1.4440 ha         1 AYK       0.115000
     34 H5          -2.1170     1.5530    -0.4790 ha         1 AYK       0.096500
     35 H6          -2.1920     2.3600     1.2130 ha         1 AYK       0.096500
     36 H7          -2.6860    -0.1090    -0.1090 ha         1 AYK       0.140000
     37 H8          -4.7530    -1.3820    -2.5340 hc         1 AYK       0.039700
     38 H9          -4.7050    -5.0060    -2.1330 hc         1 AYK       0.020700
     39 H10         -4.6840    -3.6200    -3.2450 hc         1 AYK       0.020700
     40 H11         -2.4450    -4.4190    -1.3420 hc         1 AYK       0.020700
     41 H12         -2.4410    -4.6620    -3.0930 hc         1 AYK       0.020700
     42 H13          1.6770     2.1160     1.6350 hc         1 AYK       0.023200
     43 H14          1.8640     1.2690     3.1800 hc         1 AYK       0.023200
     44 H15         -0.4930     1.9770     2.7780 hc         1 AYK       0.019200
     45 H16         -0.3390     0.2130     2.8860 hc         1 AYK       0.019200
     46 H17          3.7560    -0.6310     2.0400 ho         1 AYK       0.388000
     47 H18         -1.1390    -2.6460    -2.2800 hc         1 AYK       0.021200
     48 H19         -2.3680    -2.3030    -3.5070 hc         1 AYK       0.021200
     49 H20         -6.8310    -3.1220    -1.8090 hc         1 AYK       0.032700
     50 H21         -7.1830    -1.0090    -0.9800 hc         1 AYK       0.013700
     51 H22         -6.7960    -1.5620     0.6670 hc         1 AYK       0.013700
     52 H23         -5.1860     0.1940    -0.7530 hc         1 AYK       0.024700
     53 H24         -4.5420    -0.9270     0.4810 hc         1 AYK       0.024700
     54 H25         -8.7380    -4.0480    -0.4860 hc         1 AYK       0.041200
     55 H26         -8.4050    -2.8640     0.7860 hc         1 AYK       0.041200
     56 H27         -7.1720    -6.0850    -0.0190 hc         1 AYK       0.027367
     57 H28         -5.4390    -5.7450     0.0720 hc         1 AYK       0.027367
     58 H29         -6.3290    -5.4080    -1.4190 hc         1 AYK       0.027367
     59 H30         -6.5710    -3.7130     2.0960 ho         1 AYK       0.386000
     60 H31        -10.5710    -4.3130     1.4740 hn         1 AYK       0.173500
     61 H32         -9.4990    -6.0320     3.6070 h1         1 AYK       0.056700
     62 H33        -11.8250    -6.1040     4.3870 hc         1 AYK       0.010867
     63 H34        -12.3720    -5.3410     2.8880 hc         1 AYK       0.010867
     64 H35        -11.3670    -4.4340     4.0270 hc         1 AYK       0.010867
     65 H36        -11.2700    -7.0990     1.3830 hc         1 AYK       0.010867
     66 H37        -11.0440    -7.9230     2.9320 hc         1 AYK       0.010867
     67 H38         -9.6660    -7.6820     1.8500 hc         1 AYK       0.010867
     68 H39         -4.3420    -4.5100     0.3850 hc         1 AYK       0.039033
     69 H40         -4.3170    -2.8200     0.9060 hc         1 AYK       0.039033
     70 H41         -2.9810    -3.4690    -0.0540 hc         1 AYK       0.039033
     71 C8          -1.7240     1.6670     0.5240 c2         1 AYK      -0.182000
@<TRIPOS>BOND
     1     1     2 1   
     2     1     4 2   
     3     1    13 1   
     4     2     3 1   
     5     2    30 1   
     6     2    31 1   
     7     3    11 1   
     8     3    14 1   
     9     3    32 1   
    10     4     5 1   
    11     4    33 1   
    12     5     6 2   
    13     5    36 1   
    14     6     7 1   
    15     6    15 1   
    16     7     8 1   
    17     7    18 1   
    18     7    37 1   
    19     8     9 1   
    20     8    16 1   
    21     8    28 1   
    22     9    10 1   
    23     9    38 1   
    24     9    39 1   
    25    10    15 1   
    26    10    40 1   
    27    10    41 1   
    28    11    12 1   
    29    11    42 1   
    30    11    43 1   
    31    12    13 1   
    32    12    44 1   
    33    12    45 1   
    34    13    71 2   
    35    14    46 1   
    36    15    47 1   
    37    15    48 1   
    38    16    17 1   
    39    16    19 1   
    40    16    49 1   
    41    17    18 1   
    42    17    50 1   
    43    17    51 1   
    44    18    52 1   
    45    18    53 1   
    46    19    20 1   
    47    19    21 1   
    48    19    23 1   
    49    20    22 1   
    50    20    54 1   
    51    20    55 1   
    52    21    56 1   
    53    21    57 1   
    54    21    58 1   
    55    22    24 1   
    56    22    29 2   
    57    23    59 1   
    58    24    25 1   
    59    24    60 1   
    60    25    26 1   
    61    25    27 1   
    62    25    61 1   
    63    26    62 1   
    64    26    63 1   
    65    26    64 1   
    66    27    65 1   
    67    27    66 1   
    68    27    67 1   
    69    28    68 1   
    70    28    69 1   
    71    28    70 1   
    72    34    71 1   
    73    35    71 1   
@<TRIPOS>SUBSTRUCTURE
     1 AYK         1 TEMP              0 ****  ****    0 ROOT
