@<TRIPOS>MOLECULE
molecule
   71    73     1     0     0
SMALL
bcc


@<TRIPOS>ATOM
      1 C4           0.0000     0.0000     0.0000 ce         1 AYK      -0.093200
      2 C5           1.5150     0.0000     0.0000 c3         1 AYK      -0.041200
      3 C6           1.9980     0.0000     1.4530 c3         1 AYK       0.149100
      4 C7          -0.7080    -0.8340    -0.7890 cf         1 AYK      -0.120000
      5 C10         -2.1710    -0.8040    -0.7610 cf         1 AYK      -0.164000
      6 C11         -2.8710    -1.6290    -1.5400 c2         1 AYK      -0.088400
      7 C12         -4.3700    -1.6440    -1.5540 c3         1 AYK      -0.035500
      8 C13         -4.7760    -3.0970    -1.1750 c3         1 AYK      -0.055000
      9 C14         -4.3260    -4.0040    -2.2970 c3         1 AYK      -0.068400
     10 C15         -2.7880    -4.0220    -2.2910 c3         1 AYK      -0.078400
     11 C1           1.4320     1.2170     2.1880 c3         1 AYK      -0.089400
     12 C2          -0.0900     1.0910     2.3030 c3         1 AYK      -0.038200
     13 C3          -0.6660     0.9550     0.9110 ce         1 AYK      -0.081200
     14 O9           3.4260     0.0520     1.4800 oh         1 AYK      -0.608800
     15 C16         -2.2030    -2.6200    -2.4850 c3         1 AYK      -0.044200
     16 C17         -6.2660    -2.9800    -0.8950 c3         1 AYK      -0.062700
     17 C18         -6.4640    -1.5360    -0.3640 c3         1 AYK      -0.078400
     18 C19         -5.0760    -0.8420    -0.4580 c3         1 AYK      -0.073400
     19 C20         -6.6900    -3.9990     0.1640 c3         1 AYK       0.180800
     20 C21         -8.1900    -3.8640     0.4310 c3         1 AYK      -0.196400
     21 C22         -6.3850    -5.4120    -0.3370 c3         1 AYK      -0.106100
     22 C23         -8.6060    -4.8680     1.4740 c          1 AYK       0.648100
     23 O24         -5.9680    -3.7570     1.3730 oh         1 AYK      -0.582800
     24 N25         -9.8930    -4.9330     1.8710 ns         1 AYK      -0.583900
     25 C26        -10.2980    -5.9090     2.8860 c3         1 AYK       0.109700
     26 C27        -11.5570    -5.4110     3.5990 c3         1 AYK      -0.106100
     27 C28        -10.5910    -7.2510     2.2140 c3         1 AYK      -0.106100
     28 C30         -4.0510    -3.5040     0.1090 c3         1 AYK      -0.093100
     29 O31         -7.7850    -5.6180     1.9580 o          1 AYK      -0.602100
     30 H1           1.8790    -0.8870    -0.5040 hc         1 AYK       0.058700
     31 H2           1.8790     0.8870    -0.5040 hc         1 AYK       0.058700
     32 H3           1.6580    -0.9040     1.9440 h1         1 AYK       0.033700
     33 H4          -0.1930    -1.5270    -1.4430 ha         1 AYK       0.133000
     34 H5          -2.1910     2.3610     1.2130 ha         1 AYK       0.120000
     35 H6          -2.1160     1.5540    -0.4790 ha         1 AYK       0.120000
     36 H7          -2.6860    -0.1350    -0.0820 ha         1 AYK       0.147000
     37 H8          -4.7530    -1.3820    -2.5340 hc         1 AYK       0.062700
     38 H9          -4.6840    -3.6200    -3.2450 hc         1 AYK       0.043200
     39 H10         -4.7050    -5.0060    -2.1330 hc         1 AYK       0.043200
     40 H11         -2.4410    -4.6620    -3.0930 hc         1 AYK       0.044700
     41 H12         -2.4450    -4.4180    -1.3420 hc         1 AYK       0.044700
     42 H13          1.6770     2.1160     1.6350 hc         1 AYK       0.052200
     43 H14          1.8640     1.2690     3.1800 hc         1 AYK       0.052200
     44 H15         -0.3390     0.2130     2.8860 hc         1 AYK       0.050700
     45 H16         -0.4930     1.9770     2.7780 hc         1 AYK       0.050700
     46 H17          3.7590    -0.6850     1.9640 ho         1 AYK       0.400000
     47 H18         -1.1390    -2.6460    -2.2800 hc         1 AYK       0.048200
     48 H19         -2.3680    -2.3030    -3.5070 hc         1 AYK       0.048200
     49 H20         -6.8310    -3.1220    -1.8090 hc         1 AYK       0.053700
     50 H21         -7.1830    -1.0100    -0.9800 hc         1 AYK       0.040200
     51 H22         -6.7960    -1.5620     0.6670 hc         1 AYK       0.040200
     52 H23         -5.1860     0.1940    -0.7530 hc         1 AYK       0.050200
     53 H24         -4.5420    -0.9270     0.4810 hc         1 AYK       0.050200
     54 H25         -8.4050    -2.8640     0.7860 hc         1 AYK       0.069200
     55 H26         -8.7380    -4.0480    -0.4860 hc         1 AYK       0.069200
     56 H27         -6.3660    -5.4150    -1.4200 hc         1 AYK       0.049700
     57 H28         -7.1530    -6.0920     0.0120 hc         1 AYK       0.049700
     58 H29         -5.4210    -5.7300     0.0420 hc         1 AYK       0.049700
     59 H30         -6.5730    -3.6860     2.0920 ho         1 AYK       0.393000
     60 H31        -10.5680    -4.3020     1.4860 hn         1 AYK       0.312500
     61 H32         -9.4990    -6.0320     3.6070 h1         1 AYK       0.080700
     62 H33        -11.3420    -4.4750     4.1010 hc         1 AYK       0.042200
     63 H34        -12.3470    -5.2570     2.8730 hc         1 AYK       0.042200
     64 H35        -11.8750    -6.1470     4.3270 hc         1 AYK       0.042200
     65 H36        -10.5490    -8.0420     2.9530 hc         1 AYK       0.042200
     66 H37         -9.8530    -7.4380     1.4430 hc         1 AYK       0.042200
     67 H38        -11.5780    -7.2250     1.7690 hc         1 AYK       0.042200
     68 H39         -4.2030    -4.5610     0.2900 hc         1 AYK       0.052033
     69 H40         -2.9910    -3.3030     0.0050 hc         1 AYK       0.052033
     70 H41         -4.4460    -2.9340     0.9420 hc         1 AYK       0.052033
     71 C8          -1.7240     1.6670     0.5240 c2         1 AYK      -0.222000
@<TRIPOS>BOND
     1    26    25 1
     2    27    25 1
     3    25    24 1
     4    24    22 1
     5    22    29 2
     6    22    20 1
     7    23    19 1
     8    20    19 1
     9    28     8 1
    10    10     9 1
    11    10    15 1
    12    71    13 2
    13    19    21 1
    14    19    16 1
    15     9     8 1
    16     8    16 1
    17     8     7 1
    18    13     1 1
    19    13    12 1
    20    11    12 1
    21    11     3 1
    22     2     1 1
    23     2     3 1
    24     1     4 2
    25    16    17 1
    26     4     5 1
    27     3    14 1
    28    15     6 1
    29     5     6 2
    30     6     7 1
    31     7    18 1
    32    17    18 1
    33     2    30 1
    34     2    31 1
    35     3    32 1
    36     4    33 1
    37    71    34 1
    38    71    35 1
    39     5    36 1
    40     7    37 1
    41     9    38 1
    42     9    39 1
    43    10    40 1
    44    10    41 1
    45    11    42 1
    46    11    43 1
    47    12    44 1
    48    12    45 1
    49    14    46 1
    50    15    47 1
    51    15    48 1
    52    16    49 1
    53    17    50 1
    54    17    51 1
    55    18    52 1
    56    18    53 1
    57    20    54 1
    58    20    55 1
    59    21    56 1
    60    21    57 1
    61    21    58 1
    62    23    59 1
    63    24    60 1
    64    25    61 1
    65    26    62 1
    66    26    63 1
    67    26    64 1
    68    27    65 1
    69    27    66 1
    70    27    67 1
    71    28    68 1
    72    28    69 1
    73    28    70 1
@<TRIPOS>SUBSTRUCTURE
     1 AYK         1 TEMP              0 ****  ****    0 ROOT
