@<TRIPOS>MOLECULE
molecule
   56    59     1     0     0
SMALL
bcc


@<TRIPOS>ATOM
      1 P            0.0000     0.0000     0.0000 p5         1 AYL       1.369800
      2 N1           1.5430     9.9160    -3.3770 nb         1 AYL      -0.842000
      3 C2           0.4250     9.3980    -3.8510 ca         1 AYL       0.719900
      4 N3           0.0800     8.1470    -3.6350 nb         1 AYL      -0.769000
      5 C4           0.8580     7.3430    -2.9180 ca         1 AYL       0.469800
      6 C5           2.0590     7.8470    -2.3910 ca         1 AYL      -0.202200
      7 C6           2.3850     9.1900    -2.6500 ca         1 AYL       0.776200
      8 N6           3.5550     9.7420    -2.1580 nv         1 AYL      -0.999500
      9 N7           2.6540     6.8370    -1.7120 nc         1 AYL      -0.605100
     10 C8           1.9110     5.7710    -1.7860 cd         1 AYL       0.450700
     11 N9           0.7930     6.0320    -2.5200 na         1 AYL      -0.245000
     12 C1'         -0.2840     5.0860    -2.8250 c3         1 AYL       0.255800
     13 O1P          1.6100     0.0000     0.0000 o          1 AYL      -0.827000
     14 C2'         -0.0520     4.4240    -4.2070 c3         1 AYL       0.087100
     15 O2'         -0.5940     5.2290    -5.2560 oh         1 AYL      -0.565800
     16 O2P         -0.5350     0.0000     1.5180 os         1 AYL      -0.604200
     17 C3'         -0.8360     3.0960    -4.0670 c3         1 AYL       0.084100
     18 O3'         -2.1320     3.2160    -4.6590 oh         1 AYL      -0.579800
     19 O3P         -0.4940    -1.2070    -0.6980 o          1 AYL      -0.827000
     20 C4'         -0.9560     2.8880    -2.5450 c3         1 AYL       0.118100
     21 O4'         -0.2580     3.9710    -1.9090 os         1 AYL      -0.388600
     22 C5'         -0.3180     1.5550    -2.1500 c3         1 AYL       0.233400
     23 O5'         -0.5360     1.3150    -0.7580 os         1 AYL      -0.591200
     24 CAC         -2.5050    -1.0220     8.5160 ca         1 AYL       0.084100
     25 CAD         -1.1890    -0.6610     8.2640 ca         1 AYL      -0.152500
     26 CAH         -2.6640    -1.9670     6.3190 ca         1 AYL      -0.114500
     27 CAJ         -0.6150    -0.9550     7.0430 ca         1 AYL      -0.114500
     28 CAK         -1.3510    -1.6070     6.0700 ca         1 AYL      -0.071300
     29 CAP         -0.7220    -1.9260     4.7380 c3         1 AYL      -0.041100
     30 CAQ         -0.9560    -0.7630     3.7720 c3         1 AYL      -0.087400
     31 CAR         -0.3180    -1.0870     2.4200 c3         1 AYL       0.230400
     32 CAS         -3.2420    -1.6750     7.5380 ca         1 AYL      -0.152500
     33 HN6          3.6450    10.7360    -2.0810 hn         1 AYL       0.443800
     34 HN6A         4.3270     9.1500    -1.9240 hn         1 AYL       0.443800
     35 H8           2.1470     4.8160    -1.3310 h5         1 AYL       0.107800
     36 H1'         -1.2490     5.5760    -2.7980 h2         1 AYL       0.106700
     37 H2'          1.0020     4.2300    -4.3660 h1         1 AYL       0.057700
     38 HO2'        -0.0820     5.1110    -6.0390 ho         1 AYL       0.397000
     39 H3'         -0.2810     2.2810    -4.5160 h1         1 AYL       0.052700
     40 HO3'        -2.2490     2.5340    -5.2990 ho         1 AYL       0.400000
     41 H4'         -2.0000     2.9040    -2.2540 h1         1 AYL       0.084700
     42 H5'         -0.7650     0.7560    -2.7290 h1         1 AYL       0.039700
     43 H5'A         0.7460     1.5920    -2.3480 h1         1 AYL       0.039700
     44 HAD         -0.6120    -0.1510     9.0260 ha         1 AYL       0.132000
     45 HAH         -3.2390    -2.4770     5.5560 ha         1 AYL       0.137000
     46 HAJ          0.4130    -0.6740     6.8460 ha         1 AYL       0.137000
     47 HAP         -1.1690    -2.8270     4.3340 hc         1 AYL       0.048200
     48 HAPA         0.3420    -2.0790     4.8690 hc         1 AYL       0.048200
     49 HAQ         -0.5090     0.1370     4.1760 hc         1 AYL       0.049700
     50 HAQA        -2.0210    -0.6100     3.6420 hc         1 AYL       0.049700
     51 HAR         -0.7660    -1.9870     2.0160 h1         1 AYL       0.028700
     52 HARA         0.7460    -1.2410     2.5500 h1         1 AYL       0.028700
     53 HAS         -4.2700    -1.9580     7.7320 ha         1 AYL       0.132000
     54 HOBF        -2.9310    -1.4600    10.3090 ho         1 AYL       0.409000
     55 OBF         -3.0700    -0.7390     9.7190 oh         1 AYL      -0.527100
     56 H2          -0.2200    10.0520    -4.4250 h5         1 AYL       0.053100
@<TRIPOS>BOND
     1     1    13 1
     2     1    16 1
     3     1    19 1
     4     1    23 1
     5     2     3 ar
     6     2     7 ar
     7     3     4 ar
     8     4     5 ar
     9     5     6 ar
    10     5    11 1
    11     6     7 ar
    12     6     9 1
    13     7     8 1
    14     9    10 2
    15    10    11 1
    16    11    12 1
    17    12    14 1
    18    12    21 1
    19    14    15 1
    20    14    17 1
    21    16    31 1
    22    17    18 1
    23    17    20 1
    24    20    21 1
    25    20    22 1
    26    22    23 1
    27    24    25 ar
    28    24    32 ar
    29    24    55 1
    30    25    27 ar
    31    26    28 ar
    32    26    32 ar
    33    27    28 ar
    34    28    29 1
    35    29    30 1
    36    30    31 1
    37     3    56 1
    38     8    33 1
    39     8    34 1
    40    10    35 1
    41    12    36 1
    42    14    37 1
    43    15    38 1
    44    17    39 1
    45    18    40 1
    46    20    41 1
    47    22    42 1
    48    22    43 1
    49    25    44 1
    50    26    45 1
    51    27    46 1
    52    29    47 1
    53    29    48 1
    54    30    49 1
    55    30    50 1
    56    31    51 1
    57    31    52 1
    58    32    53 1
    59    55    54 1
@<TRIPOS>SUBSTRUCTURE
     1 AYL         1 TEMP              0 ****  ****    0 ROOT
