@<TRIPOS>MOLECULE
AYL
   56    59     1     0     0
SMALL
bcc


@<TRIPOS>ATOM
      1 P            0.0000     0.0000     0.0000 p5         1 AYL       0.937800
      2 N1           1.5430     9.9160    -3.3770 nb         1 AYL      -0.752000
      3 C2           0.4250     9.3980    -3.8510 ca         1 AYL       0.663900
      4 N3           0.0800     8.1470    -3.6350 nb         1 AYL      -0.649000
      5 C4           0.8580     7.3430    -2.9180 ca         1 AYL       0.259800
      6 C5           2.0590     7.8470    -2.3910 ca         1 AYL      -0.233200
      7 C6           2.3850     9.1900    -2.6500 ca         1 AYL       0.584200
      8 N6           3.5550     9.7420    -2.1580 nv         1 AYL      -0.508500
      9 N7           2.6540     6.8370    -1.7120 nc         1 AYL      -0.520100
     10 C8           1.9110     5.7710    -1.7860 cd         1 AYL       0.275700
     11 N9           0.7930     6.0320    -2.5200 na         1 AYL       0.221000
     12 C1'         -0.2840     5.0860    -2.8250 c3         1 AYL       0.141800
     13 O1P          1.6100     0.0000     0.0000 o          1 AYL      -0.670500
     14 C2'         -0.0520     4.4240    -4.2070 c3         1 AYL       0.123100
     15 O2'         -0.5940     5.2290    -5.2560 oh         1 AYL      -0.546800
     16 O2P         -0.5350     0.0000     1.5180 os         1 AYL      -0.501200
     17 C3'         -0.8360     3.0960    -4.0670 c3         1 AYL       0.126100
     18 O3'         -2.1320     3.2160    -4.6590 oh         1 AYL      -0.560800
     19 O3P         -0.4940    -1.2070    -0.6980 o          1 AYL      -0.670500
     20 C4'         -0.9560     2.8880    -2.5450 c3         1 AYL       0.140100
     21 O4'         -0.2580     3.9710    -1.9090 os         1 AYL      -0.372600
     22 C5'         -0.3180     1.5550    -2.1500 c3         1 AYL       0.311400
     23 O5'         -0.5360     1.3150    -0.7580 os         1 AYL      -0.492200
     24 CAC         -2.5050    -1.0220     8.5160 ca         1 AYL       0.100100
     25 CAD         -1.1890    -0.6610     8.2640 ca         1 AYL      -0.140500
     26 CAH         -2.6640    -1.9670     6.3190 ca         1 AYL      -0.080500
     27 CAJ         -0.6150    -0.9550     7.0430 ca         1 AYL      -0.080500
     28 CAK         -1.3510    -1.6070     6.0700 ca         1 AYL      -0.082300
     29 CAP         -0.7220    -1.9260     4.7380 c3         1 AYL       0.028900
     30 CAQ         -0.9560    -0.7630     3.7720 c3         1 AYL      -0.052400
     31 CAR         -0.3180    -1.0870     2.4200 c3         1 AYL       0.317400
     32 CAS         -3.2420    -1.6750     7.5380 ca         1 AYL      -0.140500
     33 HN6          3.6450    10.7360    -2.0810 hn         1 AYL       0.271800
     34 HN6A         4.3270     9.1500    -1.9240 hn         1 AYL       0.271800
     35 H8           2.1470     4.8160    -1.3310 h5         1 AYL       0.058800
     36 H1'         -1.2490     5.5760    -2.7980 h2         1 AYL       0.063700
     37 H2'          1.0020     4.2300    -4.3660 h1         1 AYL       0.020700
     38 HO2'        -0.0820     5.1110    -6.0390 ho         1 AYL       0.381000
     39 H3'         -0.2810     2.2810    -4.5160 h1         1 AYL       0.017700
     40 HO3'        -2.2490     2.5340    -5.2990 ho         1 AYL       0.384000
     41 H4'         -2.0000     2.9040    -2.2540 h1         1 AYL       0.043700
     42 H5'         -0.7650     0.7560    -2.7290 h1         1 AYL      -0.010300
     43 H5'A         0.7460     1.5920    -2.3480 h1         1 AYL      -0.010300
     44 HAD         -0.6120    -0.1510     9.0260 ha         1 AYL       0.106000
     45 HAH         -3.2390    -2.4770     5.5560 ha         1 AYL       0.109500
     46 HAJ          0.4130    -0.6740     6.8460 ha         1 AYL       0.109500
     47 HAP         -1.1690    -2.8270     4.3340 hc         1 AYL       0.015200
     48 HAPA         0.3420    -2.0790     4.8690 hc         1 AYL       0.015200
     49 HAQ         -0.5090     0.1370     4.1760 hc         1 AYL       0.015700
     50 HAQA        -2.0210    -0.6100     3.6420 hc         1 AYL       0.015700
     51 HAR         -0.7660    -1.9870     2.0160 h1         1 AYL      -0.019800
     52 HARA         0.7460    -1.2410     2.5500 h1         1 AYL      -0.019800
     53 HAS         -4.2700    -1.9580     7.7320 ha         1 AYL       0.106000
     54 HOBF        -2.9310    -1.4600    10.3090 ho         1 AYL       0.393000
     55 OBF         -3.0700    -0.7390     9.7190 oh         1 AYL      -0.505100
     56 H2          -0.2200    10.0520    -4.4250 h5         1 AYL      -0.010900
@<TRIPOS>BOND
     1     1    13 1   
     2     1    16 1   
     3     1    19 1   
     4     1    23 1   
     5     2     3 ar  
     6     2     7 ar  
     7     3     4 ar  
     8     3    56 1   
     9     4     5 ar  
    10     5     6 ar  
    11     5    11 1   
    12     6     7 ar  
    13     6     9 1   
    14     7     8 1   
    15     8    33 1   
    16     8    34 1   
    17     9    10 2   
    18    10    11 1   
    19    10    35 1   
    20    11    12 1   
    21    12    14 1   
    22    12    21 1   
    23    12    36 1   
    24    14    15 1   
    25    14    17 1   
    26    14    37 1   
    27    15    38 1   
    28    16    31 1   
    29    17    18 1   
    30    17    20 1   
    31    17    39 1   
    32    18    40 1   
    33    20    21 1   
    34    20    22 1   
    35    20    41 1   
    36    22    23 1   
    37    22    42 1   
    38    22    43 1   
    39    24    25 ar  
    40    24    32 ar  
    41    24    55 1   
    42    25    27 ar  
    43    25    44 1   
    44    26    28 ar  
    45    26    32 ar  
    46    26    45 1   
    47    27    28 ar  
    48    27    46 1   
    49    28    29 1   
    50    29    30 1   
    51    29    47 1   
    52    29    48 1   
    53    30    31 1   
    54    30    49 1   
    55    30    50 1   
    56    31    51 1   
    57    31    52 1   
    58    32    53 1   
    59    54    55 1   
@<TRIPOS>SUBSTRUCTURE
     1 AYL         1 TEMP              0 ****  ****    0 ROOT
