@<TRIPOS>MOLECULE
molecule
   44    46     1     0     0
SMALL
bcc


@<TRIPOS>ATOM
      1 N01          0.0000     0.0000     0.0000 nv         1 AYM      -1.024500
      2 C02          1.3850     0.0000     0.0000 ca         1 AYM       0.707200
      3 N03          2.0380     0.0000     1.1540 nb         1 AYM      -0.752000
      4 C04          3.3530    -0.0050     1.2040 ca         1 AYM       0.478200
      5 C05          4.1070    -0.0010     0.0280 ca         1 AYM      -0.258100
      6 C06          3.4400    -0.0030    -1.2090 ca         1 AYM      -0.036000
      7 C07          2.0720    -0.0040    -1.2120 ca         1 AYM      -0.309300
      8 C08          5.5760    -0.0030     0.0830 ce         1 AYM      -0.007200
      9 C09          6.2060    -0.0020     1.2770 cf         1 AYM      -0.270200
     10 C10          7.6680    -0.0030     1.3320 c          1 AYM       0.677300
     11 O11          8.3150     0.0800     0.3040 o          1 AYM      -0.616100
     12 N12          8.2970    -0.0970     2.5190 n          1 AYM      -0.488800
     13 C13          9.7590    -0.0220     2.5810 c3         1 AYM       0.101300
     14 C14          7.5190    -0.2720     3.7480 c3         1 AYM       0.168200
     15 C15          7.1740     1.0780     4.3220 cc         1 AYM      -0.087300
     16 C16          6.0690     1.7800     4.0280 cd         1 AYM      -0.178200
     17 C17          6.1330     3.0220     4.8010 ca         1 AYM      -0.104800
     18 C18          7.3340     2.9640     5.5320 ca         1 AYM      -0.030200
     19 N19          7.9400     1.7680     5.2230 na         1 AYM      -0.066400
     20 C20          9.2150     1.3030     5.7740 c3         1 AYM       0.038600
     21 C21          5.2970     4.1340     4.9230 ca         1 AYM      -0.074000
     22 C22          5.6500     5.1610     5.7510 ca         1 AYM      -0.159000
     23 C23          6.8340     5.1080     6.4750 ca         1 AYM      -0.106000
     24 C24          7.6740     4.0200     6.3710 ca         1 AYM      -0.145000
     25 H011        -0.5000     0.4830     0.7200 hn         1 AYM       0.441300
     26 H012        -0.5000    -0.4850    -0.7180 hn         1 AYM       0.441300
     27 H04          3.8550    -0.0040     2.1650 h4         1 AYM       0.025100
     28 H06          3.9960    -0.0030    -2.1390 ha         1 AYM       0.142000
     29 H07          1.5280    -0.0050    -2.1490 ha         1 AYM       0.139000
     30 H08          6.1530    -0.0050    -0.8340 ha         1 AYM       0.156000
     31 H09          5.6290    -0.0000     2.1940 ha         1 AYM       0.132000
     32 H131        10.1820    -0.5040     1.7090 h1         1 AYM       0.043367
     33 H132        10.1080    -0.5230     3.4760 h1         1 AYM       0.043367
     34 H133        10.0660     1.0170     2.6050 h1         1 AYM       0.043367
     35 H141         8.1040    -0.8320     4.4680 h1         1 AYM       0.063700
     36 H142         6.6080    -0.8130     3.5250 h1         1 AYM       0.063700
     37 H16          5.2060     1.4110     3.4870 ha         1 AYM       0.152000
     38 H201         9.4380     1.8520     6.6800 h1         1 AYM       0.047700
     39 H202        10.0030     1.4670     5.0490 h1         1 AYM       0.047700
     40 H203         9.1470     0.2450     5.9990 h1         1 AYM       0.047700
     41 H21          4.3720     4.1820     4.3610 ha         1 AYM       0.131000
     42 H22          5.0010     6.0230     5.8450 ha         1 AYM       0.129000
     43 H23          7.1000     5.9300     7.1280 ha         1 AYM       0.129000
     44 H24          8.5950     3.9890     6.9390 ha         1 AYM       0.124000
@<TRIPOS>BOND
     1     1     2 1
     2     1    25 1
     3     1    26 1
     4     2     3 ar
     5     2     7 ar
     6     3     4 ar
     7     4     5 ar
     8     4    27 1
     9     5     6 ar
    10     5     8 1
    11     6     7 ar
    12     6    28 1
    13     7    29 1
    14     8     9 2
    15     8    30 1
    16     9    10 1
    17     9    31 1
    18    10    11 2
    19    10    12 1
    20    12    13 1
    21    12    14 1
    22    13    32 1
    23    13    33 1
    24    13    34 1
    25    14    15 1
    26    14    35 1
    27    14    36 1
    28    15    16 2
    29    15    19 1
    30    16    17 1
    31    16    37 1
    32    17    18 ar
    33    17    21 ar
    34    18    19 1
    35    18    24 ar
    36    19    20 1
    37    20    38 1
    38    20    39 1
    39    20    40 1
    40    21    22 ar
    41    21    41 1
    42    22    23 ar
    43    22    42 1
    44    23    24 ar
    45    23    43 1
    46    24    44 1
@<TRIPOS>SUBSTRUCTURE
     1 AYM         1 TEMP              0 ****  ****    0 ROOT
