@<TRIPOS>MOLECULE
AYM
   44    48     1     0     0
SMALL
bcc


@<TRIPOS>ATOM
      1 N01          0.0000     0.0000     0.0000 n8         1 AYM       0.047000
      2 C02          1.3850     0.0000     0.0000 c2         1 AYM      -0.043000
      3 N03          2.0380     0.0000     1.1540 n2         1 AYM      -0.084000
      4 C04          3.3530    -0.0050     1.2040 c2         1 AYM      -0.064000
      5 C05          4.1070    -0.0010     0.0280 c3         1 AYM      -0.132000
      6 C06          3.4400    -0.0030    -1.2090 c2         1 AYM      -0.070000
      7 C07          2.0720    -0.0040    -1.2120 c2         1 AYM      -0.189000
      8 C08          5.5760    -0.0030     0.0830 c2         1 AYM       0.016000
      9 C09          6.2060    -0.0020     1.2770 c2         1 AYM      -0.162000
     10 C10          7.6680    -0.0030     1.3320 c3         1 AYM       0.379000
     11 O11          8.3150     0.0800     0.3040 o          1 AYM      -0.439000
     12 N12          8.2970    -0.0970     2.5190 n3         1 AYM      -0.051000
     13 C13          9.7590    -0.0220     2.5810 c3         1 AYM      -0.059000
     14 C14          7.5190    -0.2720     3.7480 c3         1 AYM       0.028000
     15 C15          7.1740     1.0780     4.3220 c2         1 AYM      -0.253000
     16 C16          6.0690     1.7800     4.0280 c2         1 AYM      -0.135000
     17 C17          6.1330     3.0220     4.8010 ca         1 AYM      -0.097000
     18 C18          7.3340     2.9640     5.5320 ca         1 AYM      -0.159000
     19 N19          7.9400     1.7680     5.2230 na         1 AYM       0.313000
     20 C20          9.2150     1.3030     5.7740 c3         1 AYM      -0.118000
     21 C21          5.2970     4.1340     4.9230 ca         1 AYM      -0.036000
     22 C22          5.6500     5.1610     5.7510 ca         1 AYM      -0.136000
     23 C23          6.8340     5.1080     6.4750 ca         1 AYM      -0.081000
     24 C24          7.6740     4.0200     6.3710 ca         1 AYM      -0.108000
     25 H011        -0.5000     0.4920    -0.7130 hn         1 AYM       0.066000
     26 H012        -0.5000    -0.5020     0.7070 hn         1 AYM       0.066000
     27 H04          3.8550    -0.0040     2.1650 h4         1 AYM       0.131000
     28 H06          3.9960    -0.0030    -2.1390 ha         1 AYM       0.120000
     29 H07          1.5280    -0.0050    -2.1490 ha         1 AYM       0.117000
     30 H08          4.9570    -0.8770     0.2440 DU         1 AYM       0.108000
     31 H09          6.8240    -0.8780     1.1160 DU         1 AYM       0.016000
     32 H131        10.1840    -0.5470     1.7350 h1         1 AYM       0.052000
     33 H132        10.0680     1.0160     2.5550 h1         1 AYM       0.052000
     34 H133        10.1050    -0.4780     3.5010 h1         1 AYM       0.052000
     35 H141         8.1040    -0.8320     4.4680 h1         1 AYM       0.068500
     36 H142         6.6080    -0.8130     3.5250 h1         1 AYM       0.068500
     37 H16          5.2060     1.4110     3.4860 ha         1 AYM       0.137000
     38 H201         9.3430     0.2510     5.5490 h1         1 AYM       0.059000
     39 H202         9.2180     1.4460     6.8470 h1         1 AYM       0.059000
     40 H203        10.0270     1.8680     5.3320 h1         1 AYM       0.059000
     41 H21          4.3720     4.1820     4.3610 ha         1 AYM       0.102000
     42 H22          5.0010     6.0230     5.8450 ha         1 AYM       0.102000
     43 H23          7.1000     5.9300     7.1280 ha         1 AYM       0.099000
     44 H24          8.5950     3.9890     6.9390 ha         1 AYM       0.099000
@<TRIPOS>BOND
     1     1     2 1   
     2     1    25 1   
     3     1    26 1   
     4     2     3 1   
     5     2     7 1   
     6     3     4 1   
     7     4     5 1   
     8     4    27 1   
     9     5     6 1   
    10     5     8 1   
    11     5    30 1   
    12     6     7 1   
    13     6    28 1   
    14     7    29 1   
    15     8     9 1   
    16     8    30 1   
    17     9    10 1   
    18     9    31 1   
    19    10    11 1   
    20    10    12 1   
    21    10    31 1   
    22    12    13 1   
    23    12    14 1   
    24    13    32 1   
    25    13    33 1   
    26    13    34 1   
    27    14    15 1   
    28    14    35 1   
    29    14    36 1   
    30    15    16 1   
    31    15    19 1   
    32    16    17 1   
    33    16    37 1   
    34    17    18 1   
    35    17    21 1   
    36    18    19 1   
    37    18    24 1   
    38    19    20 1   
    39    20    38 1   
    40    20    39 1   
    41    20    40 1   
    42    21    22 1   
    43    21    41 1   
    44    22    23 1   
    45    22    42 1   
    46    23    24 1   
    47    23    43 1   
    48    24    44 1   
@<TRIPOS>SUBSTRUCTURE
     1 AYM         1 TEMP              0 ****  ****    0 ROOT
