@<TRIPOS>MOLECULE
molecule
   34    36     1     0     0
SMALL
bcc


@<TRIPOS>ATOM
      1 C1           0.0000     0.0000     0.0000 ca         1 AYN      -0.133000
      2 C2           1.3650     0.0000     0.0000 ca         1 AYN      -0.065000
      3 C3           2.0620     0.0000     1.2160 ca         1 AYN      -0.119800
      4 C8           3.5390    -0.0000     2.9030 cc         1 AYN      -0.203300
      5 C9           3.4380     0.0000     1.5470 cd         1 AYN      -0.107200
      6 C10          4.7960     0.0000     3.6650 c          1 AYN       0.517300
      7 C13          1.9710    -0.0000     4.8190 ca         1 AYN      -0.052200
      8 C14          2.2620     1.1150     5.5940 ca         1 AYN      -0.059000
      9 C15          1.9720     1.1090     6.9440 ca         1 AYN      -0.167300
     10 C16          1.3930    -0.0040     7.5240 ca         1 AYN      -0.056000
     11 C19          2.2880     2.3180     7.7870 c3         1 AYN       0.677200
     12 C4           1.3450     0.0000     2.4290 ca         1 AYN       0.020800
     13 C5          -0.0450     0.0000     2.4030 ca         1 AYN      -0.147000
     14 C6          -0.7080     0.0050     1.1950 ca         1 AYN      -0.054000
     15 N7           2.2680    -0.0000     3.4510 na         1 AYN       0.058500
     16 O11          4.7720     0.0880     4.8780 o          1 AYN      -0.422100
     17 N12          5.9740    -0.0970     3.0190 nz         1 AYN      -0.671400
     18 C17          1.1020    -1.1160     6.7550 ca         1 AYN      -0.118000
     19 C18          1.3890    -1.1170     5.4040 ca         1 AYN      -0.088000
     20 F20          1.5870     3.4250     7.2950 f          1 AYN      -0.214633
     21 F21          1.9070     2.0760     9.1120 f          1 AYN      -0.214633
     22 F22          3.6620     2.5760     7.7360 f          1 AYN      -0.214633
     23 H1          -0.5370     0.0040    -0.9410 ha         1 AYN       0.156000
     24 H2           1.9080    -0.0040    -0.9370 ha         1 AYN       0.146000
     25 H3           4.2610     0.0770     0.8470 ha         1 AYN       0.144000
     26 H4           2.7150     1.9870     5.1400 ha         1 AYN       0.151000
     27 H5           1.1670    -0.0060     8.5840 ha         1 AYN       0.170000
     28 H6          -0.6060     0.0040     3.3290 ha         1 AYN       0.154000
     29 H7          -1.7910     0.0050     1.1780 ha         1 AYN       0.158000
     30 H8           5.9750    -0.9190     2.4480 hn         1 AYN       0.478800
     31 H9           6.7170    -0.1550     3.6870 hn         1 AYN       0.478800
     32 H10          0.6480    -1.9870     7.2130 ha         1 AYN       0.161000
     33 H11          1.1610    -1.9880     4.8020 ha         1 AYN       0.153000
     34 H123         6.1150     0.7190     2.4570 hn         1 AYN       0.478800
@<TRIPOS>BOND
     1    20    11 1
     2    14    13 ar
     3    14     1 ar
     4    22    11 1
     5    13    12 ar
     6     1     2 ar
     7    11     9 1
     8    11    21 1
     9     9    10 ar
    10     9     8 ar
    11    10    18 ar
    12     8     7 ar
    13    12     3 ar
    14    12    15 1
    15    18    19 ar
    16     2     3 ar
    17     7    19 ar
    18     7    15 1
    19     3     5 1
    20    15     4 1
    21     5     4 2
    22     4     6 1
    23     6    17 1
    24     6    16 2
    25     1    23 1
    26     2    24 1
    27     5    25 1
    28     8    26 1
    29    10    27 1
    30    13    28 1
    31    14    29 1
    32    17    30 1
    33    17    31 1
    34    18    32 1
    35    19    33 1
    36    34    17 1
@<TRIPOS>SUBSTRUCTURE
     1 AYN         1 TEMP              0 ****  ****    0 ROOT
