@<TRIPOS>MOLECULE
AYN
   34    36     1     0     0
SMALL
bcc


@<TRIPOS>ATOM
      1 C1           0.0000     0.0000     0.0000 ca         1 AYN      -0.097000
      2 C2           1.3650     0.0000     0.0000 ca         1 AYN      -0.034000
      3 C3           2.0620     0.0000     1.2160 ca         1 AYN      -0.105800
      4 C8           3.5390    -0.0000     2.9030 cc         1 AYN      -0.418300
      5 C9           3.4380     0.0000     1.5470 cd         1 AYN      -0.093200
      6 C10          4.7960     0.0000     3.6650 c          1 AYN       0.383300
      7 C13          1.9710    -0.0000     4.8190 ca         1 AYN      -0.251200
      8 C14          2.2620     1.1150     5.5940 ca         1 AYN      -0.002000
      9 C15          1.9720     1.1090     6.9440 ca         1 AYN      -0.197300
     10 C16          1.3930    -0.0040     7.5240 ca         1 AYN      -0.001000
     11 C19          2.2880     2.3180     7.7870 c3         1 AYN       0.643200
     12 C4           1.3450     0.0000     2.4290 ca         1 AYN      -0.189200
     13 C5          -0.0450     0.0000     2.4030 ca         1 AYN      -0.107000
     14 C6          -0.7080     0.0050     1.1950 ca         1 AYN      -0.026000
     15 N7           2.2680    -0.0000     3.4510 na         1 AYN       0.630500
     16 O11          4.7720     0.0880     4.8780 o          1 AYN      -0.452100
     17 N12          5.9740    -0.0970     3.0190 nz         1 AYN       0.213600
     18 C17          1.1020    -1.1160     6.7550 ca         1 AYN      -0.091000
     19 C18          1.3890    -1.1170     5.4040 ca         1 AYN      -0.039000
     20 F20          1.5870     3.4250     7.2950 f          1 AYN      -0.200300
     21 F21          1.9070     2.0760     9.1120 f          1 AYN      -0.200300
     22 F22          3.6620     2.5760     7.7360 f          1 AYN      -0.200300
     23 H1          -0.5370     0.0040    -0.9410 ha         1 AYN       0.122000
     24 H2           1.9080    -0.0040    -0.9370 ha         1 AYN       0.113000
     25 H3           4.2610     0.0770     0.8470 ha         1 AYN       0.116000
     26 H4           2.7150     1.9870     5.1400 ha         1 AYN       0.119000
     27 H5           1.1670    -0.0060     8.5840 ha         1 AYN       0.136000
     28 H6          -0.6060     0.0040     3.3290 ha         1 AYN       0.122000
     29 H7          -1.7910     0.0050     1.1780 ha         1 AYN       0.120000
     30 H8           5.9750    -0.9190     2.4480 hn         1 AYN       0.245467
     31 H9           6.7170    -0.1550     3.6870 hn         1 AYN       0.245467
     32 H10          0.6480    -1.9870     7.2130 ha         1 AYN       0.128000
     33 H11          1.1610    -1.9880     4.8020 ha         1 AYN       0.120000
     34 H123         6.1150     0.7190     2.4570 hn         1 AYN       0.245467
@<TRIPOS>BOND
     1     1     2 ar  
     2     1    14 ar  
     3     1    23 1   
     4     2     3 ar  
     5     2    24 1   
     6     3     5 1   
     7     3    12 ar  
     8     4     5 2   
     9     4     6 1   
    10     4    15 1   
    11     5    25 1   
    12     6    16 2   
    13     6    17 1   
    14     7     8 ar  
    15     7    15 1   
    16     7    19 ar  
    17     8     9 ar  
    18     8    26 1   
    19     9    10 ar  
    20     9    11 1   
    21    10    18 ar  
    22    10    27 1   
    23    11    20 1   
    24    11    21 1   
    25    11    22 1   
    26    12    13 ar  
    27    12    15 1   
    28    13    14 ar  
    29    13    28 1   
    30    14    29 1   
    31    17    30 1   
    32    17    31 1   
    33    17    34 1   
    34    18    19 ar  
    35    18    32 1   
    36    19    33 1   
@<TRIPOS>SUBSTRUCTURE
     1 AYN         1 TEMP              0 ****  ****    0 ROOT
