@<TRIPOS>MOLECULE
AYS
   29    30     1     0     0
SMALL
bcc


@<TRIPOS>ATOM
      1 N1           0.0000     0.0000     0.0000 nz         1 AYS       0.199600
      2 C4           3.4860    -0.0880    -1.2830 ca         1 AYS       0.149600
      3 C5           2.0850    -0.0010    -1.2760 ca         1 AYS      -0.251600
      4 C6           1.3930     0.0840    -2.4870 ca         1 AYS      -0.079000
      5 C7           1.3470     0.0000     0.0000 c          1 AYS       0.350700
      6 C8           4.2550    -1.3880     0.5990 ca         1 AYS       0.033600
      7 C10          4.9170    -2.6510     2.5280 ca         1 AYS      -0.048000
      8 C13          3.7250    -2.5380     0.0290 ca         1 AYS      -0.165000
      9 C1           2.0870     0.0820    -3.6770 ca         1 AYS      -0.080000
     10 C2           3.4720    -0.0040    -3.6810 ca         1 AYS      -0.015000
     11 C3           4.1690    -0.0830    -2.4930 ca         1 AYS      -0.109000
     12 O1           1.9560     0.0000     1.0530 o          1 AYS      -0.422100
     13 C9           4.8490    -1.4480     1.8530 ca         1 AYS      -0.165000
     14 C11          4.3920    -3.7970     1.9560 ca         1 AYS      -0.074600
     15 C12          3.7940    -3.7400     0.7080 ca         1 AYS      -0.048000
     16 Cl1          4.4770    -5.3070     2.8060 cl         1 AYS       0.006600
     17 H1          -0.3340     0.8370    -0.4360 hn         1 AYS       0.245467
     18 H2          -0.3340    -0.0400     0.9430 hn         1 AYS       0.245467
     19 H3           0.3170     0.2100    -2.4890 ha         1 AYS       0.083000
     20 H4           5.3820    -2.6980     3.5050 ha         1 AYS       0.120500
     21 H5           3.2560    -2.4940    -0.9470 ha         1 AYS       0.112500
     22 H6           1.5490     0.1480    -4.6150 ha         1 AYS       0.128000
     23 H7           4.0080    -0.0100    -4.6220 ha         1 AYS       0.127000
     24 H8           5.2310     0.0080    -2.6850 ha         1 AYS       0.142000
     25 H9           4.6830     0.6250     0.2590 hn         1 AYS       0.310800
     26 H10          5.2620    -0.5520     2.3000 ha         1 AYS       0.112500
     27 H11          3.3820    -4.6370     0.2640 ha         1 AYS       0.120500
     28 H13         -0.3340    -0.7890    -0.5180 hn         1 AYS       0.245467
     29 N2           4.1860    -0.1720    -0.0860 nu         1 AYS      -0.278000
@<TRIPOS>BOND
     1     1     5 1   
     2     1    17 1   
     3     1    18 1   
     4     1    28 1   
     5     2     3 ar  
     6     2    11 ar  
     7     2    29 1   
     8     3     4 ar  
     9     3     5 1   
    10     4     9 ar  
    11     4    19 1   
    12     5    12 2   
    13     6     8 ar  
    14     6    13 ar  
    15     6    29 1   
    16     7    13 ar  
    17     7    14 ar  
    18     7    20 1   
    19     8    15 ar  
    20     8    21 1   
    21     9    10 ar  
    22     9    22 1   
    23    10    11 ar  
    24    10    23 1   
    25    11    24 1   
    26    13    26 1   
    27    14    15 ar  
    28    14    16 1   
    29    15    27 1   
    30    25    29 1   
@<TRIPOS>SUBSTRUCTURE
     1 AYS         1 TEMP              0 ****  ****    0 ROOT
