@<TRIPOS>MOLECULE
molecule
   29    30     1     0     0
SMALL
bcc


@<TRIPOS>ATOM
      1 N1           0.0000     0.0000     0.0000 nz         1 AYS      -0.677400
      2 C4           3.4860    -0.0880    -1.2830 ca         1 AYS       0.274600
      3 C5           2.0850    -0.0010    -1.2760 ca         1 AYS      -0.231600
      4 C6           1.3930     0.0840    -2.4870 ca         1 AYS      -0.109000
      5 C7           1.3470     0.0000     0.0000 c          1 AYS       0.502700
      6 C8           4.2550    -1.3880     0.5990 ca         1 AYS       0.181600
      7 C10          4.9170    -2.6510     2.5280 ca         1 AYS      -0.076000
      8 C13          3.7250    -2.5380     0.0290 ca         1 AYS      -0.188500
      9 C1           2.0870     0.0820    -3.6770 ca         1 AYS      -0.118000
     10 C2           3.4720    -0.0040    -3.6810 ca         1 AYS      -0.054000
     11 C3           4.1690    -0.0830    -2.4930 ca         1 AYS      -0.138000
     12 O1           1.9560     0.0000     1.0530 o          1 AYS      -0.399100
     13 C9           4.8490    -1.4480     1.8530 ca         1 AYS      -0.188500
     14 C11          4.3920    -3.7970     1.9560 ca         1 AYS      -0.006600
     15 C12          3.7940    -3.7400     0.7080 ca         1 AYS      -0.076000
     16 Cl1          4.4770    -5.3070     2.8060 cl         1 AYS      -0.082400
     17 H1          -0.3340     0.8370    -0.4360 hn         1 AYS       0.476133
     18 H2          -0.3340    -0.0400     0.9430 hn         1 AYS       0.476133
     19 H3           0.3170     0.2100    -2.4890 ha         1 AYS       0.112000
     20 H4           5.3820    -2.6980     3.5050 ha         1 AYS       0.155000
     21 H5           3.2560    -2.4940    -0.9470 ha         1 AYS       0.136500
     22 H6           1.5490     0.1480    -4.6150 ha         1 AYS       0.163000
     23 H7           4.0080    -0.0100    -4.6220 ha         1 AYS       0.167000
     24 H8           5.2310     0.0080    -2.6850 ha         1 AYS       0.178000
     25 H9           4.6830     0.6250     0.2590 hn         1 AYS       0.470800
     26 H10          5.2620    -0.5520     2.3000 ha         1 AYS       0.136500
     27 H11          3.3820    -4.6370     0.2640 ha         1 AYS       0.155000
     28 H13         -0.3340    -0.7890    -0.5180 hn         1 AYS       0.476133
     29 N2           4.1860    -0.1720    -0.0860 nu         1 AYS      -0.715000
@<TRIPOS>BOND
     1    15     8 ar
     2    15    14 ar
     3    16    14 1
     4     8     6 ar
     5    14     7 ar
     6    10    11 ar
     7    10     9 ar
     8    11     2 ar
     9     9     4 ar
    10     6    29 1
    11     6    13 ar
    12     7    13 ar
    13     2    29 1
    14     2     3 ar
    15     4     3 ar
    16     3     5 1
    17     1     5 1
    18     5    12 2
    19     1    17 1
    20     1    18 1
    21     4    19 1
    22     7    20 1
    23     8    21 1
    24     9    22 1
    25    10    23 1
    26    11    24 1
    27    29    25 1
    28    13    26 1
    29    15    27 1
    30    28     1 1
@<TRIPOS>SUBSTRUCTURE
     1 AYS         1 TEMP              0 ****  ****    0 ROOT
