@<TRIPOS>MOLECULE
molecule
   73    75     1     0     0
SMALL
bcc


@<TRIPOS>ATOM
      1 C4           0.0000     0.0000     0.0000 ce         1 AYT      -0.092200
      2 C5           1.5160     0.0000     0.0000 c3         1 AYT      -0.037200
      3 C6           1.9990     0.0000     1.4530 c3         1 AYT       0.149100
      4 C7          -0.7070    -0.8350    -0.7890 cf         1 AYT      -0.121000
      5 C10         -2.1710    -0.8040    -0.7600 cf         1 AYT      -0.163000
      6 C11         -2.8700    -1.6300    -1.5400 c2         1 AYT      -0.091400
      7 C12         -4.3690    -1.6440    -1.5540 c3         1 AYT      -0.033500
      8 C13         -4.7760    -3.0970    -1.1750 c3         1 AYT      -0.061000
      9 C14         -4.3260    -4.0040    -2.2960 c3         1 AYT      -0.068400
     10 C15         -2.7880    -4.0230    -2.2890 c3         1 AYT      -0.079400
     11 C1           1.4320     1.2170     2.1870 c3         1 AYT      -0.093400
     12 C2          -0.0900     1.0900     2.3030 c3         1 AYT      -0.037200
     13 C3          -0.6650     0.9560     0.9110 ce         1 AYT      -0.082200
     14 O9           3.4270     0.0520     1.4800 oh         1 AYT      -0.607800
     15 C16         -2.2030    -2.6200    -2.4830 c3         1 AYT      -0.044200
     16 C17         -6.2660    -2.9800    -0.8950 c3         1 AYT      -0.043700
     17 C18         -6.4630    -1.5370    -0.3640 c3         1 AYT      -0.075400
     18 C19         -5.0750    -0.8420    -0.4580 c3         1 AYT      -0.075400
     19 C20         -6.6900    -3.9990     0.1650 c3         1 AYT       0.158800
     20 C21         -8.1900    -3.8640     0.4300 c3         1 AYT      -0.106400
     21 C22         -6.3850    -5.4120    -0.3360 c3         1 AYT      -0.134100
     22 C23         -8.6130    -4.8830     1.4910 c3         1 AYT      -0.090400
     23 O24         -5.9680    -3.7560     1.3740 oh         1 AYT      -0.597800
     24 C25        -10.1140    -4.7470     1.7570 c3         1 AYT      -0.074400
     25 C26        -10.5380    -5.7660     2.8170 c3         1 AYT      -0.078700
     26 C27         -9.8590    -5.4310     4.1470 c3         1 AYT      -0.087600
     27 C28        -12.0560    -5.7170     2.9930 c3         1 AYT      -0.087600
     28 C29         -4.0510    -3.5030     0.1100 c3         1 AYT      -0.085100
     29 H1           1.8800     0.8870    -0.5040 hc         1 AYT       0.059200
     30 H2           1.8800    -0.8870    -0.5040 hc         1 AYT       0.059200
     31 H3           1.6580    -0.9040     1.9440 h1         1 AYT       0.033700
     32 H4          -0.1910    -1.5280    -1.4440 ha         1 AYT       0.133000
     33 H5          -2.1160     1.5530    -0.4800 ha         1 AYT       0.121000
     34 H6          -2.1910     2.3610     1.2120 ha         1 AYT       0.121000
     35 H7          -2.6860    -0.1080    -0.1090 ha         1 AYT       0.149000
     36 H8          -4.7510    -1.3820    -2.5330 hc         1 AYT       0.063700
     37 H9          -4.7050    -5.0050    -2.1320 hc         1 AYT       0.042200
     38 H10         -4.6830    -3.6200    -3.2440 hc         1 AYT       0.042200
     39 H11         -2.4400    -4.6630    -3.0910 hc         1 AYT       0.043700
     40 H12         -2.4450    -4.4190    -1.3410 hc         1 AYT       0.043700
     41 H13          1.6770     2.1150     1.6340 hc         1 AYT       0.052200
     42 H14          1.8640     1.2700     3.1800 hc         1 AYT       0.052200
     43 H15         -0.4930     1.9760     2.7780 hc         1 AYT       0.050700
     44 H16         -0.3390     0.2120     2.8860 hc         1 AYT       0.050700
     45 H17          3.7550    -0.6150     2.0600 ho         1 AYT       0.400000
     46 H18         -1.1390    -2.6460    -2.2780 hc         1 AYT       0.048700
     47 H19         -2.3670    -2.3040    -3.5060 hc         1 AYT       0.048700
     48 H20         -6.8300    -3.1230    -1.8090 hc         1 AYT       0.057700
     49 H21         -7.1830    -1.0110    -0.9800 hc         1 AYT       0.048200
     50 H22         -6.7960    -1.5630     0.6660 hc         1 AYT       0.048200
     51 H23         -4.5410    -0.9260     0.4810 hc         1 AYT       0.049700
     52 H24         -5.1850     0.1940    -0.7540 hc         1 AYT       0.049700
     53 H25         -8.7380    -4.0480    -0.4860 hc         1 AYT       0.052200
     54 H26         -8.4060    -2.8630     0.7850 hc         1 AYT       0.052200
     55 H27         -6.7740    -6.1360     0.3700 hc         1 AYT       0.046367
     56 H28         -6.8530    -5.5610    -1.3010 hc         1 AYT       0.046367
     57 H29         -5.3140    -5.5390    -0.4300 hc         1 AYT       0.046367
     58 H30         -8.0660    -4.6980     2.4080 hc         1 AYT       0.042700
     59 H31         -8.3980    -5.8830     1.1370 hc         1 AYT       0.042700
     60 H32         -6.0700    -4.4920     1.9540 ho         1 AYT       0.396000
     61 H33        -10.3290    -3.7470     2.1120 hc         1 AYT       0.042700
     62 H34        -10.6610    -4.9310     0.8400 hc         1 AYT       0.042700
     63 H35        -10.2430    -6.7600     2.5010 hc         1 AYT       0.047700
     64 H36        -10.4240    -5.8680     4.9610 hc         1 AYT       0.033867
     65 H37         -9.8190    -4.3560     4.2710 hc         1 AYT       0.033867
     66 H38         -8.8530    -5.8330     4.1490 hc         1 AYT       0.033867
     67 H39        -12.3450    -4.7420     3.3640 hc         1 AYT       0.033867
     68 H40        -12.5370    -5.8980     2.0390 hc         1 AYT       0.033867
     69 H41        -12.3620    -6.4780     3.7010 hc         1 AYT       0.033867
     70 H42         -4.3650    -2.8570     0.9210 hc         1 AYT       0.045367
     71 H43         -2.9810    -3.4070    -0.0330 hc         1 AYT       0.045367
     72 H44         -4.2920    -4.5310     0.3520 hc         1 AYT       0.045367
     73 C8          -1.7240     1.6680     0.5230 c2         1 AYT      -0.220000
@<TRIPOS>BOND
     1    26    25 1
     2    27    25 1
     3    25    24 1
     4    24    22 1
     5    22    20 1
     6    20    19 1
     7    28     8 1
     8    23    19 1
     9    10     9 1
    10    10    15 1
    11    73    13 2
    12     9     8 1
    13    19    16 1
    14    19    21 1
    15     8    16 1
    16     8     7 1
    17    13     1 1
    18    13    12 1
    19     2     1 1
    20     2     3 1
    21    11    12 1
    22    11     3 1
    23     1     4 2
    24    15     6 1
    25     4     5 1
    26     3    14 1
    27    16    17 1
    28     5     6 2
    29     6     7 1
    30     7    18 1
    31    17    18 1
    32     2    29 1
    33     2    30 1
    34     3    31 1
    35     4    32 1
    36    73    33 1
    37    73    34 1
    38     5    35 1
    39     7    36 1
    40     9    37 1
    41     9    38 1
    42    10    39 1
    43    10    40 1
    44    11    41 1
    45    11    42 1
    46    12    43 1
    47    12    44 1
    48    14    45 1
    49    15    46 1
    50    15    47 1
    51    16    48 1
    52    17    49 1
    53    17    50 1
    54    18    51 1
    55    18    52 1
    56    20    53 1
    57    20    54 1
    58    21    55 1
    59    21    56 1
    60    21    57 1
    61    22    58 1
    62    22    59 1
    63    23    60 1
    64    24    61 1
    65    24    62 1
    66    25    63 1
    67    26    64 1
    68    26    65 1
    69    26    66 1
    70    27    67 1
    71    27    68 1
    72    27    69 1
    73    28    70 1
    74    28    71 1
    75    28    72 1
@<TRIPOS>SUBSTRUCTURE
     1 AYT         1 TEMP              0 ****  ****    0 ROOT
