@<TRIPOS>MOLECULE
molecule
   32    32     1     0     0
SMALL
bcc


@<TRIPOS>ATOM
      1 N1           0.0000     0.0000     0.0000 ns         1 AYV      -0.585900
      2 C4          -0.3630    -1.2500     2.0710 c3         1 AYV       0.129400
      3 C5           1.3470     0.0000     0.0000 c          1 AYV       0.794100
      4 C6           3.4180     0.0980    -1.1700 ca         1 AYV       0.072600
      5 C7           4.0650     0.7910    -2.1840 ca         1 AYV      -0.145500
      6 C8           5.4430     0.8800    -2.1870 ca         1 AYV      -0.114000
      7 C10          5.5370    -0.4110    -0.1690 ca         1 AYV      -0.114000
      8 C1          -0.3620     1.2490     2.0720 c3         1 AYV      -0.102100
      9 C2          -0.7320     0.0000     1.2690 c3         1 AYV       0.156400
     10 C3          -2.2360     0.0000     0.9900 c3         1 AYV       0.129400
     11 O1          -2.9510     0.0000     2.2280 oh         1 AYV      -0.613800
     12 O2          -0.6000    -2.4140     1.2760 oh         1 AYV      -0.613800
     13 O3           1.9560    -0.0000     1.0520 o          1 AYV      -0.656100
     14 N2           2.0210     0.0010    -1.1680 ns         1 AYV      -0.493100
     15 C9           6.1790     0.2810    -1.1800 ca         1 AYV      -0.147000
     16 C11          4.1590    -0.5040    -0.1610 ca         1 AYV      -0.145500
     17 H1          -0.5000     0.0300    -0.8660 hn         1 AYV       0.307500
     18 H2           0.6850    -1.2070     2.3440 h1         1 AYV       0.041700
     19 H3          -0.9680    -1.2960     2.9680 h1         1 AYV       0.041700
     20 H4           3.4890     1.2610    -2.9720 ha         1 AYV       0.147500
     21 H5           5.9490     1.4210    -2.9770 ha         1 AYV       0.130500
     22 H6           6.1160    -0.8800     0.6180 ha         1 AYV       0.130500
     23 H7          -0.1730     2.0720     1.3930 hc         1 AYV       0.054033
     24 H8           0.5290     1.0520     2.6570 hc         1 AYV       0.054033
     25 H9          -1.1790     1.5080     2.7350 hc         1 AYV       0.054033
     26 H10         -2.4970     0.8850     0.4220 h1         1 AYV       0.041700
     27 H11         -2.4980    -0.8840     0.4220 h1         1 AYV       0.041700
     28 H12         -3.8770     0.0430     2.0560 ho         1 AYV       0.406000
     29 H13         -0.4660    -3.1860     1.8000 ho         1 AYV       0.406000
     30 H14          1.5250    -0.0960    -2.0310 hn         1 AYV       0.317500
     31 H15          7.2600     0.3520    -1.1850 ha         1 AYV       0.128000
     32 H16          3.6570    -1.0450     0.6320 ha         1 AYV       0.147500
@<TRIPOS>BOND
     1     6    15 ar
     2     6     5 ar
     3    15     7 ar
     4     5     4 ar
     5     7    16 ar
     6     4    16 ar
     7     4    14 1
     8    14     3 1
     9    12     2 1
    10     1     3 1
    11     1     9 1
    12     3    13 2
    13    11    10 1
    14     2     9 1
    15     9    10 1
    16     9     8 1
    17     1    17 1
    18     2    18 1
    19     2    19 1
    20     5    20 1
    21     6    21 1
    22     7    22 1
    23     8    23 1
    24     8    24 1
    25     8    25 1
    26    10    26 1
    27    10    27 1
    28    11    28 1
    29    12    29 1
    30    14    30 1
    31    15    31 1
    32    16    32 1
@<TRIPOS>SUBSTRUCTURE
     1 AYV         1 TEMP              0 ****  ****    0 ROOT
