@<TRIPOS>MOLECULE
molecule
   20    21     1     0     0
SMALL
bcc


@<TRIPOS>ATOM
      1 CAA          0.0000     0.0000     0.0000 c3         1 AYW      -0.054800
      2 CAD          2.4500     0.0000     0.4340 ca         1 AYW      -0.209000
      3 CAE          4.0700     0.0070    -1.3530 ca         1 AYW      -0.201000
      4 CAF          1.7890    -0.0000    -4.2030 c3         1 AYW       0.024400
      5 CAH          0.8380    -0.0000    -3.0240 c          1 AYW       0.567700
      6 CAI          3.7720     0.0000     0.0000 ca         1 AYW       0.180100
      7 CAJ          1.4300     0.0010    -0.4730 ca         1 AYW       0.043700
      8 CAK          3.0450     0.0010    -2.2920 ca         1 AYW       0.184100
      9 CAL          1.7140     0.0010    -1.8450 ca         1 AYW      -0.303600
     10 OAC          4.7800    -0.0070     0.9100 oh         1 AYW      -0.519100
     11 OAG          3.1030     0.0040    -3.6450 os         1 AYW      -0.295900
     12 H1          -0.0220     0.0010     1.0830 hc         1 AYW       0.055367
     13 H2          -0.5040     0.8840    -0.3730 hc         1 AYW       0.055367
     14 H3          -0.5020    -0.8850    -0.3700 hc         1 AYW       0.055367
     15 H4           2.2300    -0.0050     1.4950 ha         1 AYW       0.150000
     16 H5           5.1020     0.0070    -1.6800 ha         1 AYW       0.155000
     17 H6           1.6450    -0.9040    -4.7820 h1         1 AYW       0.093200
     18 H7           1.6410     0.9010    -4.7860 h1         1 AYW       0.093200
     19 H8           5.0140     0.8810     1.1260 ho         1 AYW       0.429000
     20 OAB         -0.3750     0.0000    -3.0490 o          1 AYW      -0.503100
@<TRIPOS>BOND
     1    20     5 2
     2     5     4 1
     3     5     9 1
     4     4    11 1
     5     1     7 1
     6     9     7 ar
     7     9     8 ar
     8     7     2 ar
     9    11     8 1
    10     8     3 ar
    11     2     6 ar
    12     3     6 ar
    13     6    10 1
    14     1    12 1
    15     1    13 1
    16     1    14 1
    17     2    15 1
    18     3    16 1
    19     4    17 1
    20     4    18 1
    21    10    19 1
@<TRIPOS>SUBSTRUCTURE
     1 AYW         1 TEMP              0 ****  ****    0 ROOT
