@<TRIPOS>MOLECULE
molecule
   36    37     1     0     0
SMALL
bcc


@<TRIPOS>ATOM
      1 C1           0.0000     0.0000     0.0000 ca         1 AYX      -0.353500
      2 N1          -1.1240    -1.5800    -1.9530 nz         1 AYX      -0.806500
      3 O1          -2.1630     0.5450    -1.2500 o          1 AYX      -0.518800
      4 S1          -0.8800     0.0010    -1.5260 sy         1 AYX       1.225200
      5 C2           1.3820     0.0000     0.0000 ca         1 AYX      -0.015000
      6 O2           0.0030     0.5470    -2.4970 o          1 AYX      -0.518800
      7 C3           2.0740     0.0000     1.1960 ca         1 AYX      -0.159500
      8 C4           1.3800    -0.0010     2.3980 ca         1 AYX       0.179600
      9 C5          -0.0090    -0.0010     2.3940 ca         1 AYX      -0.159500
     10 C6          -0.6950     0.0040     1.1960 ca         1 AYX      -0.015000
     11 N7           2.0780    -0.0020     3.6110 ns         1 AYX      -0.488100
     12 C8           3.2620     0.6350     3.7070 c          1 AYX       0.781100
     13 O8           3.6790     1.2890     2.7710 o          1 AYX      -0.612100
     14 N9           3.9850     0.5470     4.8420 ns         1 AYX      -0.474100
     15 C10          5.1590     1.2930     4.9830 ca         1 AYX       0.049600
     16 C11          5.2630     2.5450     4.3920 ca         1 AYX      -0.077000
     17 C12          6.4240     3.2810     4.5330 ca         1 AYX      -0.134200
     18 C13          7.4810     2.7720     5.2630 ca         1 AYX      -0.077000
     19 C14          7.3820     1.5250     5.8540 ca         1 AYX      -0.110000
     20 C15          6.2220     0.7880     5.7210 ca         1 AYX      -0.118000
     21 N16          6.5360     4.6150     3.9030 no         1 AYX       0.293200
     22 O16          7.5580     5.2640     4.0280 o          1 AYX      -0.194000
     23 O17          5.6030     5.0650     3.2600 o          1 AYX      -0.194000
     24 H111         4.4340     2.9450     3.8190 ha         1 AYX       0.191000
     25 HN1         -1.6570    -2.0390    -1.2420 hn         1 AYX       0.490800
     26 H113         8.3910     3.3500     5.3710 ha         1 AYX       0.175000
     27 H114         8.2110     1.1300     6.4270 ha         1 AYX       0.159000
     28 H115         6.1440    -0.1890     6.1830 ha         1 AYX       0.143000
     29 H2           2.0770     0.0360    -0.8300 ha         1 AYX       0.166500
     30 H3           3.1560    -0.0650     1.1960 ha         1 AYX       0.177500
     31 H5          -0.5530     0.0300     3.3300 ha         1 AYX       0.177500
     32 H6          -1.7780     0.0220     1.1930 ha         1 AYX       0.166500
     33 HN7          1.7120    -0.4980     4.3990 hn         1 AYX       0.337500
     34 HN9          3.6720    -0.0400     5.5900 hn         1 AYX       0.330500
     35 HN1A        -0.2400    -2.0380    -2.0560 hn         1 AYX       0.490800
     36 H13         -1.6220    -1.6180    -2.8210 hn         1 AYX       0.490800
@<TRIPOS>BOND
     1     1     4 1
     2     2    25 1
     3     2     4 1
     4     2    35 1
     5     3     4 2
     6     4     6 2
     7     5     1 ar
     8     5    29 1
     9     7     5 ar
    10     8     7 ar
    11     8     9 ar
    12     9    10 ar
    13    10     1 ar
    14    10    32 1
    15    11     8 1
    16    12    11 1
    17    13    12 2
    18    14    12 1
    19    14    34 1
    20    15    14 1
    21    16    15 ar
    22    16    24 1
    23    17    16 ar
    24    18    17 ar
    25    18    19 ar
    26    19    20 ar
    27    20    15 ar
    28    20    28 1
    29    21    17 1
    30    21    23 1
    31    22    21 1
    32    26    18 1
    33    27    19 1
    34    30     7 1
    35    31     9 1
    36    33    11 1
    37    36     2 1
@<TRIPOS>SUBSTRUCTURE
     1 AYX         1 TEMP              0 ****  ****    0 ROOT
