@<TRIPOS>MOLECULE
AYZ
   43    45     1     0     0
SMALL
bcc


@<TRIPOS>ATOM
      1 C1           0.0000     0.0000     0.0000 ca         1 AYZ       0.009000
      2 C2           1.3640     0.0000     0.0000 ca         1 AYZ      -0.200000
      3 C3           2.0730     0.0000     1.2000 ca         1 AYZ       0.182100
      4 C8          -2.1810     0.0020     2.8990 cc         1 AYZ      -0.409300
      5 C9          -2.0750     0.0060     1.5430 cd         1 AYZ      -0.120200
      6 C10         -3.4390     0.0060     3.6550 c          1 AYZ       0.366300
      7 C13         -0.6170     0.0010     4.8200 ca         1 AYZ      -0.286200
      8 C15          4.0610    -0.0020    -0.1020 c3         1 AYZ       0.758700
      9 C19         -0.0340     1.1170     5.4060 ca         1 AYZ      -0.098000
     10 C20          0.2540     1.1130     6.7570 ca         1 AYZ      -0.095000
     11 C21         -0.0360     0.0010     7.5250 ca         1 AYZ      -0.050000
     12 C22         -0.6150    -1.1120     6.9430 ca         1 AYZ      -0.037300
     13 C24         -0.9300    -2.3220     7.7840 c3         1 AYZ       0.024900
     14 O28         -1.8360    -4.2810     9.3240 o          1 AYZ      -0.887300
     15 C4           1.4050     0.0000     2.4100 ca         1 AYZ      -0.116000
     16 C5          -0.6980     0.0010     1.2150 ca         1 AYZ      -0.126800
     17 C6           0.0150     0.0010     2.4320 ca         1 AYZ      -0.175200
     18 N7          -0.9110     0.0010     3.4510 na         1 AYZ       0.682500
     19 N11         -4.6160     0.1110     3.0060 nz         1 AYZ       0.212600
     20 O12         -3.4200    -0.0880     4.8680 o          1 AYZ      -0.405100
     21 O14          3.4310    -0.0010     1.1800 os         1 AYZ      -0.307900
     22 F16          3.6760     1.1410    -0.8120 f          1 AYZ      -0.193300
     23 F17          5.4510    -0.0020     0.0610 f          1 AYZ      -0.193300
     24 F18          3.6750    -1.1440    -0.8110 f          1 AYZ      -0.193300
     25 C23         -0.9030    -1.1170     5.5920 ca         1 AYZ      -0.063000
     26 C25         -2.3460    -2.1960     8.3500 c3         1 AYZ      -0.128400
     27 C26         -2.6610    -3.4070     9.1900 c          1 AYZ       0.973600
     28 O27         -3.8560    -3.5150     9.7910 o          1 AYZ      -0.887300
     29 H1          -0.5430     0.0000    -0.9380 ha         1 AYZ       0.109000
     30 H2           1.9010    -0.0000    -0.9410 ha         1 AYZ       0.140000
     31 H3          -2.8970    -0.0520     0.8400 ha         1 AYZ       0.111000
     32 H4           0.1930     1.9890     4.8050 ha         1 AYZ       0.105000
     33 H5           0.7090     1.9830     7.2160 ha         1 AYZ       0.111000
     34 H6           0.1920     0.0010     8.5840 ha         1 AYZ       0.126000
     35 H7          -0.2200    -2.3890     8.6000 hc         1 AYZ       0.038200
     36 H8          -0.8630    -3.2130     7.1730 hc         1 AYZ       0.038200
     37 H9           1.9630     0.0000     3.3390 ha         1 AYZ       0.142000
     38 H10         -4.7500    -0.6920     2.4240 hn         1 AYZ       0.242133
     39 H11         -4.6120     0.9360     2.4400 hn         1 AYZ       0.242133
     40 H12         -1.3570    -1.9880     5.1380 ha         1 AYZ       0.115000
     41 H13         -3.0560    -2.1290     7.5340 hc         1 AYZ       0.002200
     42 H14         -2.4130    -1.3050     8.9610 hc         1 AYZ       0.002200
     43 H113        -5.3590     0.1900     3.6730 hn         1 AYZ       0.242133
@<TRIPOS>BOND
     1     1     2 ar  
     2     1    16 ar  
     3     1    29 1   
     4     2     3 ar  
     5     2    30 1   
     6     3    15 ar  
     7     3    21 1   
     8     4     5 2   
     9     4     6 1   
    10     4    18 1   
    11     5    16 1   
    12     5    31 1   
    13     6    19 1   
    14     6    20 2   
    15     7     9 ar  
    16     7    18 1   
    17     7    25 ar  
    18     8    21 1   
    19     8    22 1   
    20     8    23 1   
    21     8    24 1   
    22     9    10 ar  
    23     9    32 1   
    24    10    11 ar  
    25    10    33 1   
    26    11    12 ar  
    27    11    34 1   
    28    12    13 1   
    29    12    25 ar  
    30    13    26 1   
    31    13    35 1   
    32    13    36 1   
    33    14    27 1   
    34    15    17 ar  
    35    15    37 1   
    36    16    17 ar  
    37    17    18 1   
    38    19    38 1   
    39    19    39 1   
    40    19    43 1   
    41    25    40 1   
    42    26    27 1   
    43    26    41 1   
    44    26    42 1   
    45    27    28 1   
@<TRIPOS>SUBSTRUCTURE
     1 AYZ         1 TEMP              0 ****  ****    0 ROOT
