@<TRIPOS>MOLECULE
molecule
   27    26     1     0     0
SMALL
bcc


@<TRIPOS>ATOM
      1 C1           0.0000     0.0000     0.0000 c          1 AZ1       0.891100
      2 C2           1.5070     0.0000     0.0000 c3         1 AZ1      -0.181900
      3 C3           2.0180     0.0000     1.4420 c3         1 AZ1      -0.064400
      4 C4           3.5480    -0.0000     1.4410 c3         1 AZ1      -0.089400
      5 C5           4.0590    -0.0000     2.8820 c3         1 AZ1      -0.080400
      6 C6           5.5880    -0.0000     2.8820 c3         1 AZ1      -0.089400
      7 C7           6.0990    -0.0000     4.3230 c3         1 AZ1      -0.064400
      8 C8           7.6280    -0.0000     4.3230 c3         1 AZ1      -0.181900
      9 C9           8.1330    -0.0000     5.7430 c          1 AZ1       0.891100
     10 O1          -0.6730     0.0000    -1.1610 o          1 AZ1      -0.866550
     11 O2          -0.6040     0.0000     1.0480 o          1 AZ1      -0.866550
     12 O3           7.3490     0.0000     6.6610 o          1 AZ1      -0.866550
     13 O4           9.4520    -0.0000     5.9870 o          1 AZ1      -0.866550
     14 H21          1.8680    -0.8840    -0.5110 hc         1 AZ1       0.024200
     15 H22          1.8680     0.8840    -0.5110 hc         1 AZ1       0.024200
     16 H31          1.6570    -0.8840     1.9530 hc         1 AZ1       0.042700
     17 H32          1.6570     0.8840     1.9530 hc         1 AZ1       0.042700
     18 H41          3.9080    -0.8840     0.9300 hc         1 AZ1       0.023700
     19 H42          3.9080     0.8840     0.9300 hc         1 AZ1       0.023700
     20 H51          3.6980    -0.8840     3.3930 hc         1 AZ1       0.035700
     21 H52          3.6980     0.8840     3.3930 hc         1 AZ1       0.035700
     22 H61          5.9490    -0.8840     2.3710 hc         1 AZ1       0.023700
     23 H62          5.9490     0.8840     2.3710 hc         1 AZ1       0.023700
     24 H71          5.7390    -0.8840     4.8340 hc         1 AZ1       0.042700
     25 H72          5.7390     0.8840     4.8340 hc         1 AZ1       0.042700
     26 H81          7.9890     0.8840     3.8120 hc         1 AZ1       0.024200
     27 H82          7.9890    -0.8840     3.8120 hc         1 AZ1       0.024200
@<TRIPOS>BOND
     1     1     2 1
     2     1    10 1
     3     1    11 1
     4     2     3 1
     5     2    14 1
     6     2    15 1
     7     3     4 1
     8     3    16 1
     9     3    17 1
    10     4     5 1
    11     4    18 1
    12     4    19 1
    13     5     6 1
    14     5    20 1
    15     5    21 1
    16     6     7 1
    17     6    22 1
    18     6    23 1
    19     7     8 1
    20     7    24 1
    21     7    25 1
    22     8     9 1
    23     8    26 1
    24     8    27 1
    25     9    12 1
    26     9    13 1
@<TRIPOS>SUBSTRUCTURE
     1 AZ1         1 TEMP              0 ****  ****    0 ROOT
