@<TRIPOS>MOLECULE
AZ1
   27    26     1     0     0
SMALL
bcc


@<TRIPOS>ATOM
      1 C1         -0.0290   -0.1420   -0.0790 c         1 AZ1      0.905600
      2 C2          1.4940    0.0280    0.0050 c3        1 AZ1     -0.187400
      3 C3          2.0030   -0.0300    1.4270 c3        1 AZ1     -0.064400
      4 C4          3.5170   -0.0030    1.4790 c3        1 AZ1     -0.078400
      5 C5          4.0480   -0.0030    2.8980 c3        1 AZ1     -0.077400
      6 C6          5.5620    0.0090    2.9230 c3        1 AZ1     -0.078400
      7 C7          6.1180    0.0240    4.3330 c3        1 AZ1     -0.064400
      8 C8          7.6280   -0.0210    4.3360 c3        1 AZ1     -0.187400
      9 C9          8.2160    0.1370    5.7460 c         1 AZ1      0.905600
     10 O1         -0.6850    0.7080   -0.7530 o         1 AZ1     -0.862800
     11 O2         -0.5700   -1.1320    0.4950 o         1 AZ1     -0.862800
     12 O3          7.8470    1.1150    6.4600 o         1 AZ1     -0.862800
     13 O4          9.0780   -0.7100    6.1270 o         1 AZ1     -0.862800
     14 H21         1.9620   -0.7930   -0.5960 hc        1 AZ1      0.016200
     15 H22         1.7820    1.0020   -0.4650 hc        1 AZ1      0.016200
     16 H31         1.5920    0.8370    2.0070 hc        1 AZ1      0.039700
     17 H32         1.6170   -0.9650    1.9130 hc        1 AZ1      0.039700
     18 H41         3.8920    0.9100    0.9440 hc        1 AZ1      0.021700
     19 H42         3.9240   -0.8930    0.9300 hc        1 AZ1      0.021700
     20 H51         3.6560    0.8930    3.4460 hc        1 AZ1      0.032700
     21 H52         3.6700   -0.9100    3.4390 hc        1 AZ1      0.032700
     22 H61         5.9350    0.9100    2.3680 hc        1 AZ1      0.021700
     23 H62         5.9490   -0.8930    2.3800 hc        1 AZ1      0.021700
     24 H71         5.7170   -0.8540    4.9030 hc        1 AZ1      0.039700
     25 H72         5.7810    0.9490    4.8710 hc        1 AZ1      0.039700
     26 H81         7.9840   -0.9860    3.8950 hc        1 AZ1      0.016200
     27 H82         8.0310    0.8120    3.7040 hc        1 AZ1      0.016200
@<TRIPOS>BOND
     1    1    2 1   
     2    1   10 1   
     3    1   11 1   
     4    2    3 1   
     5    2   14 1   
     6    2   15 1   
     7    3    4 1   
     8    3   16 1   
     9    3   17 1   
    10    4    5 1   
    11    4   18 1   
    12    4   19 1   
    13    5    6 1   
    14    5   20 1   
    15    5   21 1   
    16    6    7 1   
    17    6   22 1   
    18    6   23 1   
    19    7    8 1   
    20    7   24 1   
    21    7   25 1   
    22    8    9 1   
    23    8   26 1   
    24    8   27 1   
    25    9   12 1   
    26    9   13 1   
@<TRIPOS>SUBSTRUCTURE
     1 AZ1         1 TEMP              0 ****  ****    0 ROOT
