@<TRIPOS>MOLECULE
AZ2
   51    52     1     0     0
SMALL
bcc


@<TRIPOS>ATOM
      1 C1          0.6770   -0.4410    0.0080 ca        1 AZ2     -0.074300
      2 C2          0.3370   -0.6410   -1.4250 c3        1 AZ2     -0.037100
      3 C5         -0.1690   -2.0560   -1.7090 c3        1 AZ2      0.029100
      4 O7          0.2250   -2.3110   -3.0670 os        1 AZ2     -0.440600
      5 C8          0.0820   -3.6770   -3.4440 c3        1 AZ2      0.119400
      6 C11         0.3380   -3.7510   -4.9330 c3        1 AZ2     -0.091100
      7 C15        -1.7030   -2.2020   -1.5100 c         1 AZ2      0.898600
      8 O16        -2.3880   -1.1690   -1.2620 o         1 AZ2     -0.837800
      9 O18        -2.1850   -3.3690   -1.5640 o         1 AZ2     -0.837800
     10 C19         1.9980   -0.2280    0.4160 ca        1 AZ2     -0.101000
     11 C21         2.3070   -0.0150    1.7570 ca        1 AZ2     -0.186500
     12 C23         1.2710   -0.0150    2.7040 ca        1 AZ2      0.089100
     13 C24        -0.0570   -0.2300    2.3140 ca        1 AZ2     -0.186500
     14 C26        -0.3450   -0.4420    0.9690 ca        1 AZ2     -0.101000
     15 O28         1.6760    0.2400    4.0090 os        1 AZ2     -0.349900
     16 C29         0.6860    0.0070    5.0130 c3        1 AZ2      0.136400
     17 C32         1.4130    0.1770    6.3410 c3        1 AZ2     -0.048100
     18 C35         0.4660    0.2020    7.4870 ca        1 AZ2     -0.072300
     19 C36         0.5050   -0.8050    8.4600 ca        1 AZ2     -0.111500
     20 C38        -0.3510   -0.7690    9.5570 ca        1 AZ2     -0.147500
     21 C40        -1.2590    0.2940    9.6760 ca        1 AZ2      0.111100
     22 C41        -1.3200    1.3060    8.7050 ca        1 AZ2     -0.147500
     23 C43        -0.4550    1.2500    7.6170 ca        1 AZ2     -0.111500
     24 O45        -2.1630    0.3260   10.7070 os        1 AZ2     -0.464800
     25 S46        -1.6940    0.6070   12.3040 s6        1 AZ2      1.587500
     26 C47        -0.9500    2.1030   12.1900 c3        1 AZ2     -0.419300
     27 O51        -2.8970    0.6950   12.9740 o         1 AZ2     -0.646800
     28 O52        -0.7780   -0.3790   12.6140 o         1 AZ2     -0.646800
     29 H21         1.2320   -0.4320   -2.0700 hc        1 AZ2      0.060700
     30 H22        -0.4800    0.0770   -1.7140 hc        1 AZ2      0.060700
     31 H51         0.3450   -2.8010   -1.0410 h1        1 AZ2      0.022700
     32 H81         0.8410   -4.2890   -2.8820 h1        1 AZ2      0.045200
     33 H82        -0.9480   -4.0450   -3.1850 h1        1 AZ2      0.045200
     34 H111        1.3570   -3.3700   -5.1790 hc        1 AZ2      0.025700
     35 H112       -0.4100   -3.1300   -5.4820 hc        1 AZ2      0.025700
     36 H113        0.2530   -4.8100   -5.2720 hc        1 AZ2      0.025700
     37 H191        2.8070   -0.2310   -0.3300 ha        1 AZ2      0.163500
     38 H211        3.3410    0.1530    2.0830 ha        1 AZ2      0.127000
     39 H241       -0.8720   -0.2370    3.0490 ha        1 AZ2      0.127000
     40 H261       -1.3850   -0.6230    0.6250 ha        1 AZ2      0.163500
     41 H291       -0.1380    0.7610    4.9070 h1        1 AZ2      0.043200
     42 H292        0.2650   -1.0270    4.9100 h1        1 AZ2      0.043200
     43 H321        1.9950    1.1380    6.3150 hc        1 AZ2      0.063200
     44 H322        2.1560   -0.6560    6.4580 hc        1 AZ2      0.063200
     45 H361        1.2180   -1.6380    8.3570 ha        1 AZ2      0.143500
     46 H381       -0.3190   -1.5530   10.3290 ha        1 AZ2      0.152500
     47 H411       -2.0610    2.1120    8.7990 ha        1 AZ2      0.152500
     48 H431       -0.4960    2.0360    6.8470 ha        1 AZ2      0.143500
     49 H471        0.0930    2.1020   12.5970 h1        1 AZ2      0.130700
     50 H472       -0.8610    2.4730   11.1340 h1        1 AZ2      0.130700
     51 H473       -1.5050    2.9040   12.7440 h1        1 AZ2      0.130700
@<TRIPOS>BOND
     1    1    2 1   
     2    1   10 ar  
     3    1   14 ar  
     4    2    3 1   
     5    2   29 1   
     6    2   30 1   
     7    3    4 1   
     8    3    7 1   
     9    3   31 1   
    10    4    5 1   
    11    5    6 1   
    12    5   32 1   
    13    5   33 1   
    14    6   34 1   
    15    6   35 1   
    16    6   36 1   
    17    7    8 1   
    18    7    9 1   
    19   10   11 ar  
    20   10   37 1   
    21   11   12 ar  
    22   11   38 1   
    23   12   13 ar  
    24   12   15 1   
    25   13   14 ar  
    26   13   39 1   
    27   14   40 1   
    28   15   16 1   
    29   16   17 1   
    30   16   41 1   
    31   16   42 1   
    32   17   18 1   
    33   17   43 1   
    34   17   44 1   
    35   18   19 ar  
    36   18   23 ar  
    37   19   20 ar  
    38   19   45 1   
    39   20   21 ar  
    40   20   46 1   
    41   21   22 ar  
    42   21   24 1   
    43   22   23 ar  
    44   22   47 1   
    45   23   48 1   
    46   24   25 1   
    47   25   26 1   
    48   25   27 2   
    49   25   28 2   
    50   26   49 1   
    51   26   50 1   
    52   26   51 1   
@<TRIPOS>SUBSTRUCTURE
     1 AZ2         1 TEMP              0 ****  ****    0 ROOT
