@<TRIPOS>MOLECULE
molecule
   51    52     1     0     0
SMALL
bcc


@<TRIPOS>ATOM
      1 C1           0.0000     0.0000     0.0000 ca         1 AZ2      -0.082300
      2 C2          -0.7510    -0.0000    -1.3060 c3         1 AZ2      -0.021100
      3 C5          -1.0050    -1.4420    -1.7470 c3         1 AZ2       0.028100
      4 O7           0.2430    -2.1150    -1.9170 os         1 AZ2      -0.406600
      5 C8           0.0120    -3.4950    -1.6250 c3         1 AZ2       0.135400
      6 C11          1.3160    -4.2770    -1.7880 c3         1 AZ2      -0.093100
      7 C15         -1.7570    -1.4430    -3.0540 c          1 AZ2       0.872600
      8 O16         -2.9650    -0.8630    -3.1330 o          1 AZ2      -0.838300
      9 O18         -1.2730    -1.9660    -4.0300 o          1 AZ2      -0.838300
     10 C19          1.3830     0.0000     0.0000 ca         1 AZ2      -0.088500
     11 C21          2.0750     0.0000     1.1960 ca         1 AZ2      -0.196500
     12 C23          1.3810     0.0000     2.3970 ca         1 AZ2       0.085100
     13 C24         -0.0060     0.0000     2.3940 ca         1 AZ2      -0.196500
     14 C26         -0.6930     0.0060     1.1960 ca         1 AZ2      -0.088500
     15 O28          2.0590     0.0010     3.5740 os         1 AZ2      -0.312900
     16 C29          1.0790     0.0010     4.6140 c3         1 AZ2       0.125400
     17 C32          1.7810     0.0010     5.9740 c3         1 AZ2      -0.047100
     18 C35          0.7480     0.0010     7.0720 ca         1 AZ2      -0.058300
     19 C36          0.2760    -1.1960     7.5750 ca         1 AZ2      -0.111500
     20 C38         -0.6710    -1.1980     8.5800 ca         1 AZ2      -0.104000
     21 C40         -1.1480     0.0020     9.0870 ca         1 AZ2       0.057100
     22 C41         -0.6710     1.2020     8.5810 ca         1 AZ2      -0.104000
     23 C43          0.2790     1.1990     7.5780 ca         1 AZ2      -0.111500
     24 O45         -2.0790     0.0020    10.0760 os         1 AZ2      -0.433800
     25 S46         -1.3190     0.0030    11.3950 s6         1 AZ2       1.428500
     26 C47         -1.1130     1.7680    11.7520 c3         1 AZ2      -0.267300
     27 O51         -2.2390    -0.6090    12.2880 o          1 AZ2      -0.626300
     28 O52         -0.0850    -0.6090    11.0470 o          1 AZ2      -0.626300
     29 H21         -0.1640     0.5100    -2.0610 hc         1 AZ2       0.064700
     30 H22         -1.6980     0.5100    -1.1790 hc         1 AZ2       0.064700
     31 H51         -1.5910    -1.9530    -0.9930 h1         1 AZ2       0.028700
     32 H81         -0.7330    -3.8890    -2.3060 h1         1 AZ2       0.024200
     33 H82         -0.3430    -3.5940    -0.6060 h1         1 AZ2       0.024200
     34 H111         1.9820    -4.0430    -0.9660 hc         1 AZ2       0.029367
     35 H112         1.7860    -4.0020    -2.7240 hc         1 AZ2       0.029367
     36 H113         1.1020    -5.3390    -1.7880 hc         1 AZ2       0.029367
     37 H191         1.9240    -0.0000    -0.9380 ha         1 AZ2       0.142000
     38 H211         3.1580    -0.0000     1.1960 ha         1 AZ2       0.127000
     39 H241        -0.5500     0.0030     3.3300 ha         1 AZ2       0.127000
     40 H261        -1.7760     0.0060     1.1940 ha         1 AZ2       0.142000
     41 H291         0.4610    -0.8840     4.5270 h1         1 AZ2       0.045700
     42 H292         0.4600     0.8850     4.5270 h1         1 AZ2       0.045700
     43 H321         2.4000     0.8860     6.0610 hc         1 AZ2       0.062200
     44 H322         2.4010    -0.8830     6.0610 hc         1 AZ2       0.062200
     45 H361         0.6480    -2.1340     7.1790 ha         1 AZ2       0.144500
     46 H381        -1.0410    -2.1370     8.9730 ha         1 AZ2       0.141500
     47 H411        -1.0400     2.1410     8.9750 ha         1 AZ2       0.141500
     48 H431         0.6510     2.1360     7.1830 ha         1 AZ2       0.144500
     49 H471        -1.2000     1.9330    12.8200 h1         1 AZ2       0.100367
     50 H472        -0.1360     2.0930    11.4150 h1         1 AZ2       0.100367
     51 H473        -1.8790     2.3330    11.2360 h1         1 AZ2       0.100367
@<TRIPOS>BOND
     1     1     2 1
     2     1    10 ar
     3     1    14 ar
     4     2     3 1
     5     2    29 1
     6     2    30 1
     7     3     4 1
     8     3     7 1
     9     3    31 1
    10     4     5 1
    11     5     6 1
    12     5    32 1
    13     5    33 1
    14     6    34 1
    15     6    35 1
    16     6    36 1
    17     7     8 1
    18     7     9 1
    19    10    11 ar
    20    10    37 1
    21    11    12 ar
    22    11    38 1
    23    12    13 ar
    24    12    15 1
    25    13    14 ar
    26    13    39 1
    27    14    40 1
    28    15    16 1
    29    16    17 1
    30    16    41 1
    31    16    42 1
    32    17    18 1
    33    17    43 1
    34    17    44 1
    35    18    19 ar
    36    18    23 ar
    37    19    20 ar
    38    19    45 1
    39    20    21 ar
    40    20    46 1
    41    21    22 ar
    42    21    24 1
    43    22    23 ar
    44    22    47 1
    45    23    48 1
    46    24    25 1
    47    25    26 1
    48    25    27 2
    49    25    28 2
    50    26    49 1
    51    26    50 1
    52    26    51 1
@<TRIPOS>SUBSTRUCTURE
     1 AZ2         1 TEMP              0 ****  ****    0 ROOT
