@<TRIPOS>MOLECULE
AZ3
   57    58     1     0     0
SMALL
bcc


@<TRIPOS>ATOM
      1 N2           0.0000     0.0000     0.0000 nz         1 AZ3       0.156400
      2 C7           1.3780     0.0000     0.0000 ce         1 AZ3       0.234800
      3 N1           2.0300     0.0000     1.1280 n2         1 AZ3      -0.488100
      4 C3           2.1180    -0.0010    -1.2820 ca         1 AZ3      -0.270900
      5 C2           1.4210     0.0050    -2.4910 ca         1 AZ3      -0.015500
      6 C1           2.1130     0.0050    -3.6830 ca         1 AZ3      -0.159750
      7 C4           3.5130    -0.0010    -1.2840 ca         1 AZ3      -0.015500
      8 C5           4.1990    -0.0010    -2.4800 ca         1 AZ3      -0.159750
      9 C6           3.5020    -0.0010    -3.6820 ca         1 AZ3       0.222100
     10 O1           4.1800    -0.0020    -4.8570 os         1 AZ3      -0.284900
     11 C8           5.6070    -0.0080    -4.7830 c3         1 AZ3       0.200400
     12 C9           6.1910    -0.0080    -6.1970 c3         1 AZ3      -0.033400
     13 C10          7.7200    -0.0150    -6.1180 c3         1 AZ3      -0.021400
     14 C11          8.3040    -0.0150    -7.5310 c3         1 AZ3      -0.024400
     15 C12          9.8320    -0.0220    -7.4520 c3         1 AZ3      -0.021400
     16 C13         10.4170    -0.0210    -8.8660 c3         1 AZ3      -0.033400
     17 C14         11.9440    -0.0280    -8.7870 c3         1 AZ3       0.200400
     18 O2          12.4900    -0.0280   -10.1080 os         1 AZ3      -0.284900
     19 C15         13.8430    -0.0340   -10.2150 ca         1 AZ3       0.222100
     20 C16         14.6290    -0.0450    -9.0700 ca         1 AZ3      -0.159750
     21 C17         16.0030    -0.0500    -9.1750 ca         1 AZ3      -0.015500
     22 C20         14.4390    -0.0340   -11.4700 ca         1 AZ3      -0.159750
     23 C19         15.8120    -0.0400   -11.5830 ca         1 AZ3      -0.015500
     24 C18         16.6050    -0.0450   -10.4350 ca         1 AZ3      -0.270900
     25 C21         18.0800    -0.0510   -10.5520 ce         1 AZ3       0.234800
     26 N3          18.8180    -0.0600    -9.4780 n2         1 AZ3      -0.488100
     27 N4          18.6720    -0.0450   -11.7960 nz         1 AZ3       0.156400
     28 H1          -0.3340    -0.0040     0.9440 hn         1 AZ3       0.224467
     29 H2          -0.3340     0.8190    -0.4680 hn         1 AZ3       0.224467
     30 H3           1.5310     0.0000     1.9960 hn         1 AZ3       0.358400
     31 H4           0.3380     0.0090    -2.4930 ha         1 AZ3       0.101000
     32 H5           1.5720     0.0070    -4.6220 ha         1 AZ3       0.140500
     33 H6           4.0570    -0.0000    -0.3470 ha         1 AZ3       0.101000
     34 H7           5.2820    -0.0030    -2.4820 ha         1 AZ3       0.140500
     35 H8           5.9370    -0.8950    -4.2560 h1         1 AZ3       0.007700
     36 H9           5.9450     0.8740    -4.2530 h1         1 AZ3       0.007700
     37 H10          5.8530    -0.8900    -6.7270 hc         1 AZ3       0.031700
     38 H11          5.8610     0.8790    -6.7240 hc         1 AZ3       0.031700
     39 H12          8.0500    -0.9020    -5.5910 hc         1 AZ3       0.016700
     40 H13          8.0580     0.8670    -5.5870 hc         1 AZ3       0.016700
     41 H14          7.9740     0.8720    -8.0590 hc         1 AZ3       0.022700
     42 H15          7.9660    -0.8970    -8.0620 hc         1 AZ3       0.022700
     43 H16         10.1620    -0.9080    -6.9250 hc         1 AZ3       0.016700
     44 H17         10.1690     0.8600    -6.9220 hc         1 AZ3       0.016700
     45 H18         10.0870     0.8660    -9.3930 hc         1 AZ3       0.031700
     46 H19         10.0790    -0.9030    -9.3970 hc         1 AZ3       0.031700
     47 H20         12.2740    -0.9150    -8.2600 h1         1 AZ3       0.007700
     48 H21         12.2820     0.8540    -8.2560 h1         1 AZ3       0.007700
     49 H22         14.1620    -0.0500    -8.0920 ha         1 AZ3       0.140500
     50 H23         16.6150     0.0040    -8.2830 ha         1 AZ3       0.101000
     51 H24         13.8230    -0.0300   -12.3610 ha         1 AZ3       0.140500
     52 H25         16.2750    -0.0880   -12.5610 ha         1 AZ3       0.101000
     53 H26         18.3890    -0.0640    -8.5740 hn         1 AZ3       0.358400
     54 H27         18.3970    -0.8640   -12.3010 hn         1 AZ3       0.224467
     55 H28         19.6670    -0.0360   -11.6920 hn         1 AZ3       0.224467
     56 H231        -0.3340    -0.8150    -0.4750 hn         1 AZ3       0.224467
     57 H43         18.3760     0.7660   -12.3030 hn         1 AZ3       0.224467
@<TRIPOS>BOND
     1     1     2 1   
     2     1    28 1   
     3     1    29 1   
     4     1    56 1   
     5     2     3 2   
     6     2     4 1   
     7     3    30 1   
     8     4     5 ar  
     9     4     7 ar  
    10     5     6 ar  
    11     5    31 1   
    12     6     9 ar  
    13     6    32 1   
    14     7     8 ar  
    15     7    33 1   
    16     8     9 ar  
    17     8    34 1   
    18     9    10 1   
    19    10    11 1   
    20    11    12 1   
    21    11    35 1   
    22    11    36 1   
    23    12    13 1   
    24    12    37 1   
    25    12    38 1   
    26    13    14 1   
    27    13    39 1   
    28    13    40 1   
    29    14    15 1   
    30    14    41 1   
    31    14    42 1   
    32    15    16 1   
    33    15    43 1   
    34    15    44 1   
    35    16    17 1   
    36    16    45 1   
    37    16    46 1   
    38    17    18 1   
    39    17    47 1   
    40    17    48 1   
    41    18    19 1   
    42    19    20 ar  
    43    19    22 ar  
    44    20    21 ar  
    45    20    49 1   
    46    21    24 ar  
    47    21    50 1   
    48    22    23 ar  
    49    22    51 1   
    50    23    24 ar  
    51    23    52 1   
    52    24    25 1   
    53    25    26 2   
    54    25    27 1   
    55    26    53 1   
    56    27    54 1   
    57    27    55 1   
    58    27    57 1   
@<TRIPOS>SUBSTRUCTURE
     1 AZ3         1 TEMP              0 ****  ****    0 ROOT
