@<TRIPOS>MOLECULE
molecule
   57    58     1     0     0
SMALL
bcc


@<TRIPOS>ATOM
      1 N2           0.0000     0.0000     0.0000 nz         1 AZ3      -0.771600
      2 C7           1.3780     0.0000     0.0000 ce         1 AZ3       0.539800
      3 N1           2.0300     0.0000     1.1280 n2         1 AZ3      -0.712600
      4 C3           2.1180    -0.0010    -1.2820 ca         1 AZ3      -0.267400
      5 C2           1.4210     0.0050    -2.4910 ca         1 AZ3      -0.049000
      6 C1           2.1130     0.0050    -3.6830 ca         1 AZ3      -0.179000
      7 C4           3.5130    -0.0010    -1.2840 ca         1 AZ3      -0.049000
      8 C5           4.1990    -0.0010    -2.4800 ca         1 AZ3      -0.179000
      9 C6           3.5020    -0.0010    -3.6820 ca         1 AZ3       0.209100
     10 O1           4.1800    -0.0020    -4.8570 os         1 AZ3      -0.304900
     11 C8           5.6070    -0.0080    -4.7830 c3         1 AZ3       0.129900
     12 C9           6.1910    -0.0080    -6.1970 c3         1 AZ3      -0.081400
     13 C10          7.7200    -0.0150    -6.1180 c3         1 AZ3      -0.079900
     14 C11          8.3040    -0.0150    -7.5310 c3         1 AZ3      -0.076400
     15 C12          9.8320    -0.0220    -7.4520 c3         1 AZ3      -0.079900
     16 C13         10.4170    -0.0210    -8.8660 c3         1 AZ3      -0.081400
     17 C14         11.9440    -0.0280    -8.7870 c3         1 AZ3       0.129900
     18 O2          12.4900    -0.0280   -10.1080 os         1 AZ3      -0.304900
     19 C15         13.8430    -0.0340   -10.2150 ca         1 AZ3       0.209100
     20 C16         14.6290    -0.0450    -9.0700 ca         1 AZ3      -0.179000
     21 C17         16.0030    -0.0500    -9.1750 ca         1 AZ3      -0.049000
     22 C20         14.4390    -0.0340   -11.4700 ca         1 AZ3      -0.179000
     23 C19         15.8120    -0.0400   -11.5830 ca         1 AZ3      -0.049000
     24 C18         16.6050    -0.0450   -10.4350 ca         1 AZ3      -0.267400
     25 C21         18.0800    -0.0510   -10.5520 ce         1 AZ3       0.539800
     26 N3          18.8180    -0.0600    -9.4780 n2         1 AZ3      -0.712600
     27 N4          18.6720    -0.0450   -11.7960 nz         1 AZ3      -0.771600
     28 H1          -0.3340    -0.0030     0.9440 hn         1 AZ3       0.469633
     29 H2          -0.3340     0.8190    -0.4690 hn         1 AZ3       0.469633
     30 H3           3.0310    -0.0000     1.1290 hn         1 AZ3       0.455900
     31 H4           0.3380     0.0090    -2.4930 ha         1 AZ3       0.134000
     32 H5           1.5720     0.0070    -4.6220 ha         1 AZ3       0.168500
     33 H6           4.0570    -0.0000    -0.3470 ha         1 AZ3       0.134000
     34 H7           5.2820    -0.0030    -2.4820 ha         1 AZ3       0.168500
     35 H8           5.9450     0.8740    -4.2530 h1         1 AZ3       0.044200
     36 H9           5.9370    -0.8950    -4.2560 h1         1 AZ3       0.044200
     37 H10          5.8530    -0.8900    -6.7270 hc         1 AZ3       0.064700
     38 H11          5.8610     0.8790    -6.7240 hc         1 AZ3       0.064700
     39 H12          8.0500    -0.9020    -5.5910 hc         1 AZ3       0.045700
     40 H13          8.0580     0.8670    -5.5870 hc         1 AZ3       0.045700
     41 H14          7.9740     0.8720    -8.0590 hc         1 AZ3       0.052700
     42 H15          7.9660    -0.8970    -8.0620 hc         1 AZ3       0.052700
     43 H16         10.1690     0.8600    -6.9220 hc         1 AZ3       0.045700
     44 H17         10.1620    -0.9080    -6.9250 hc         1 AZ3       0.045700
     45 H18         10.0870     0.8660    -9.3930 hc         1 AZ3       0.064700
     46 H19         10.0790    -0.9030    -9.3970 hc         1 AZ3       0.064700
     47 H20         12.2820     0.8540    -8.2560 h1         1 AZ3       0.044200
     48 H21         12.2740    -0.9150    -8.2600 h1         1 AZ3       0.044200
     49 H22         14.1620    -0.0500    -8.0920 ha         1 AZ3       0.168500
     50 H23         16.6150     0.0040    -8.2830 ha         1 AZ3       0.134000
     51 H24         13.8230    -0.0300   -12.3610 ha         1 AZ3       0.168500
     52 H25         16.2750    -0.0880   -12.5610 ha         1 AZ3       0.134000
     53 H26         19.8160    -0.0630    -9.5560 hn         1 AZ3       0.455900
     54 H27         18.3790     0.7680   -12.3010 hn         1 AZ3       0.469633
     55 H28         19.6670    -0.0320   -11.6920 hn         1 AZ3       0.469633
     56 H231        -0.3340    -0.8160    -0.4740 hn         1 AZ3       0.469633
     57 H43         18.4060    -0.8700   -12.2960 hn         1 AZ3       0.469633
@<TRIPOS>BOND
     1    16    17 1
     2    16    15 1
     3    17    18 1
     4     3     2 2
     5    14    15 1
     6    14    13 1
     7    12    13 1
     8    12    11 1
     9     5     6 ar
    10     5     4 ar
    11     6     9 ar
    12    18    19 1
    13     2     4 1
    14     2     1 1
    15    20    19 ar
    16    20    21 ar
    17     4     7 ar
    18    19    22 ar
    19    11    10 1
    20    21    24 ar
    21     9    10 1
    22     9     8 ar
    23    22    23 ar
    24     7     8 ar
    25    24    23 ar
    26    24    25 1
    27    25    26 2
    28    25    27 1
    29     1    28 1
    30     1    29 1
    31     3    30 1
    32     5    31 1
    33     6    32 1
    34     7    33 1
    35     8    34 1
    36    11    35 1
    37    11    36 1
    38    12    37 1
    39    12    38 1
    40    13    39 1
    41    13    40 1
    42    14    41 1
    43    14    42 1
    44    15    43 1
    45    15    44 1
    46    16    45 1
    47    16    46 1
    48    17    47 1
    49    17    48 1
    50    20    49 1
    51    21    50 1
    52    22    51 1
    53    23    52 1
    54    26    53 1
    55    27    54 1
    56    27    55 1
    57    56     1 1
    58    57    27 1
@<TRIPOS>SUBSTRUCTURE
     1 AZ3         1 TEMP              0 ****  ****    0 ROOT
