@<TRIPOS>MOLECULE
molecule
   59    61     1     0     0
SMALL
bcc


@<TRIPOS>ATOM
      1 C1           0.0000     0.0000     0.0000 c          1 AZ4       0.666900
      2 C2           2.0800     0.0000     1.2690 c3         1 AZ4       0.167700
      3 C3           1.7110     1.2510     2.0710 c3         1 AZ4      -0.095400
      4 O4           3.7010    -2.7870     1.1860 o          1 AZ4      -0.626300
      5 O5           1.7660   -12.0340     3.1020 os         1 AZ4      -0.304900
      6 N6           2.2300    -8.5990     4.0230 nb         1 AZ4      -0.732000
      7 C7           1.1820     5.9120     3.5150 ca         1 AZ4      -0.124700
      8 C8           0.3110     5.3900     2.5680 ca         1 AZ4       0.428700
      9 C9           1.7100    -1.2480     2.0720 c3         1 AZ4      -0.253600
     10 C10          0.5080    -4.6290     1.9900 c3         1 AZ4       0.232800
     11 C11          0.7140    -6.1420     1.8770 c3         1 AZ4       0.165300
     12 C12          2.8370    -6.0200     3.0440 c3         1 AZ4       0.165300
     13 C13          2.7170    -4.5010     3.2060 c3         1 AZ4       0.232800
     14 C14          1.5620    -8.0000     3.0480 ca         1 AZ4       0.842900
     15 C15          2.3170    -9.9180     4.0720 ca         1 AZ4       0.435700
     16 C16          1.6980   -10.6750     3.0840 ca         1 AZ4      -0.149500
     17 C19          1.0070   -10.0110     2.0770 ca         1 AZ4       0.435700
     18 N1           1.3470     0.0000     0.0000 n          1 AZ4      -0.386300
     19 O2          -0.6070     0.0050     1.0500 o          1 AZ4      -0.604100
     20 C4           2.1920     2.4960     1.3250 c3         1 AZ4      -0.105700
     21 C5           1.8280     3.7270     2.1140 ca         1 AZ4       0.671300
     22 N2           2.6810     4.1930     3.0040 nb         1 AZ4      -0.709500
     23 C6           2.3970     5.2710     3.7160 ca         1 AZ4       0.428700
     24 N3           0.6660     4.3070     1.8950 nb         1 AZ4      -0.709500
     25 S1           2.2810    -2.7260     1.1890 s6         1 AZ4       1.337900
     26 O3           1.5370    -2.9110    -0.0060 o          1 AZ4      -0.626300
     27 N4           1.8220    -3.9890     2.1570 n3         1 AZ4      -0.825500
     28 N5           1.4930    -6.6150     3.0290 nh         1 AZ4      -0.680300
     29 C17          1.1000   -12.7300     2.0470 c3         1 AZ4       0.084400
     30 C18          1.2860   -14.2380     2.2360 c3         1 AZ4       0.626900
     31 F2           0.7450   -14.6250     3.4660 f          1 AZ4      -0.214633
     32 F3           0.6340   -14.9200     1.2030 f          1 AZ4      -0.214633
     33 F4           2.6510   -14.5460     2.2090 f          1 AZ4      -0.214633
     34 N7           0.9610    -8.6890     2.0900 nb         1 AZ4      -0.732000
     35 H1          -0.5410    -0.0040    -0.9380 h5         1 AZ4       0.038200
     36 H2           3.1450    -0.0000     1.0710 h1         1 AZ4       0.085700
     37 H3           0.6350     1.2960     2.1930 hc         1 AZ4       0.078200
     38 H4           2.1830     1.2080     3.0450 hc         1 AZ4       0.078200
     39 H5          -0.6470     5.8630     2.3830 h4         1 AZ4       0.044600
     40 H6           0.6350    -1.2930     2.1940 h1         1 AZ4       0.120700
     41 H7           2.1830    -1.2040     3.0460 h1         1 AZ4       0.120700
     42 H8          -0.1140    -4.4110     2.8500 h1         1 AZ4       0.065450
     43 H9           0.0360    -4.2580     1.0890 h1         1 AZ4       0.065450
     44 H10         -0.2490    -6.6370     1.8660 h1         1 AZ4       0.063450
     45 H11          1.2520    -6.3650     0.9630 h1         1 AZ4       0.063450
     46 H12          3.4020    -6.4280     3.8740 h1         1 AZ4       0.063450
     47 H13          3.3410    -6.2450     2.1110 h1         1 AZ4       0.063450
     48 H14          2.3030    -4.2710     4.1800 h1         1 AZ4       0.065450
     49 H15          3.6950    -4.0460     3.1030 h1         1 AZ4       0.065450
     50 H16          2.8640   -10.4030     4.8720 h4         1 AZ4       0.039100
     51 H17          0.5130   -10.5690     1.2910 h4         1 AZ4       0.039100
     52 H18          1.5340     0.4180    -1.8910 ho         1 AZ4       0.410000
     53 H19          1.7200     2.5390     0.3510 hc         1 AZ4       0.068700
     54 H20          3.2680     2.4500     1.2030 hc         1 AZ4       0.068700
     55 H21          3.1030     5.6480     4.4460 h4         1 AZ4       0.044600
     56 H22          0.0430   -12.4920     2.0670 h1         1 AZ4       0.070700
     57 H23          1.5200   -12.4310     1.0950 h1         1 AZ4       0.070700
     58 F1           0.8580     7.0190     4.2190 f          1 AZ4      -0.126900
     59 O1           2.0560    -0.0010    -1.2260 oh         1 AZ4      -0.378100
@<TRIPOS>BOND
     1    32    30 1
     2    33    30 1
     3    30    31 1
     4    30    29 1
     5    29     5 1
     6     5    16 1
     7    16    15 ar
     8    16    17 ar
     9    15     6 ar
    10    17    34 ar
    11     6    14 ar
    12    34    14 ar
    13    14    28 1
    14    28    11 1
    15    28    12 1
    16    11    10 1
    17    12    13 1
    18    58     7 1
    19    10    27 1
    20    19     1 2
    21    59    18 1
    22     7    23 ar
    23     7     8 ar
    24    23    22 ar
    25    13    27 1
    26    27    25 1
    27     1    18 1
    28     8    24 ar
    29    18     2 1
    30    22    21 ar
    31    24    21 ar
    32    21    20 1
    33    25     9 1
    34    25     4 2
    35    25    26 2
    36     9     2 1
    37     2     3 1
    38     3    20 1
    39     1    35 1
    40     2    36 1
    41     3    37 1
    42     3    38 1
    43     8    39 1
    44     9    40 1
    45     9    41 1
    46    10    42 1
    47    10    43 1
    48    11    44 1
    49    11    45 1
    50    12    46 1
    51    12    47 1
    52    13    48 1
    53    13    49 1
    54    15    50 1
    55    17    51 1
    56    59    52 1
    57    20    53 1
    58    20    54 1
    59    23    55 1
    60    29    56 1
    61    29    57 1
@<TRIPOS>SUBSTRUCTURE
     1 AZ4         1 TEMP              0 ****  ****    0 ROOT
