@<TRIPOS>MOLECULE
AZ4
   59    61     1     0     0
SMALL
bcc


@<TRIPOS>ATOM
      1 C1           0.0000     0.0000     0.0000 c          1 AZ4       0.627900
      2 C2           2.0800     0.0000     1.2690 c3         1 AZ4       0.089700
      3 C3           1.7110     1.2510     2.0710 c3         1 AZ4      -0.066400
      4 O4           3.7010    -2.7870     1.1860 o          1 AZ4      -0.583800
      5 O5           1.7660   -12.0340     3.1020 os         1 AZ4      -0.272900
      6 N6           2.2300    -8.5990     4.0230 nb         1 AZ4      -0.616500
      7 C7           1.1820     5.9120     3.5150 ca         1 AZ4      -0.137700
      8 C8           0.3110     5.3900     2.5680 ca         1 AZ4       0.415700
      9 C9           1.7100    -1.2480     2.0720 c3         1 AZ4      -0.055600
     10 C10          0.5080    -4.6290     1.9900 c3         1 AZ4       0.233800
     11 C11          0.7140    -6.1420     1.8770 c3         1 AZ4       0.127800
     12 C12          2.8370    -6.0200     3.0440 c3         1 AZ4       0.127800
     13 C13          2.7170    -4.5010     3.2060 c3         1 AZ4       0.233800
     14 C14          1.5620    -8.0000     3.0480 ca         1 AZ4       0.673900
     15 C15          2.3170    -9.9180     4.0720 ca         1 AZ4       0.407200
     16 C16          1.6980   -10.6750     3.0840 ca         1 AZ4      -0.132500
     17 C19          1.0070   -10.0110     2.0770 ca         1 AZ4       0.407200
     18 N1           1.3470     0.0000     0.0000 n          1 AZ4      -0.038300
     19 O2          -0.6070     0.0050     1.0500 o          1 AZ4      -0.655100
     20 C4           2.1920     2.4960     1.3250 c3         1 AZ4      -0.060700
     21 C5           1.8280     3.7270     2.1140 ca         1 AZ4       0.583300
     22 N2           2.6810     4.1930     3.0040 nb         1 AZ4      -0.590500
     23 C6           2.3970     5.2710     3.7160 ca         1 AZ4       0.415700
     24 N3           0.6660     4.3070     1.8950 nb         1 AZ4      -0.590500
     25 S1           2.2810    -2.7260     1.1890 s6         1 AZ4       0.967900
     26 O3           1.5370    -2.9110    -0.0060 o          1 AZ4      -0.583800
     27 N4           1.8220    -3.9890     2.1570 n3         1 AZ4      -0.549500
     28 N5           1.4930    -6.6150     3.0290 nh         1 AZ4      -0.444300
     29 C17          1.1000   -12.7300     2.0470 c3         1 AZ4       0.140400
     30 C18          1.2860   -14.2380     2.2360 c3         1 AZ4       0.573900
     31 F2           0.7450   -14.6250     3.4660 f          1 AZ4      -0.199967
     32 F3           0.6340   -14.9200     1.2030 f          1 AZ4      -0.199967
     33 F4           2.6510   -14.5460     2.2090 f          1 AZ4      -0.199967
     34 N7           0.9610    -8.6890     2.0900 nb         1 AZ4      -0.616500
     35 H1          -0.5410    -0.0040    -0.9380 h5         1 AZ4      -0.011800
     36 H2           3.1450    -0.0000     1.0710 h1         1 AZ4       0.056700
     37 H3           0.6350     1.2960     2.1930 hc         1 AZ4       0.050200
     38 H4           2.1830     1.2080     3.0450 hc         1 AZ4       0.050200
     39 H5          -0.6470     5.8630     2.3830 h4         1 AZ4      -0.000400
     40 H6           0.6350    -1.2930     2.1940 h1         1 AZ4       0.094200
     41 H7           2.1830    -1.2040     3.0460 h1         1 AZ4       0.094200
     42 H8          -0.1140    -4.4110     2.8500 h1         1 AZ4       0.029950
     43 H9           0.0360    -4.2580     1.0890 h1         1 AZ4       0.029950
     44 H10         -0.2490    -6.6370     1.8660 h1         1 AZ4       0.033200
     45 H11          1.2520    -6.3650     0.9630 h1         1 AZ4       0.033200
     46 H12          3.4020    -6.4280     3.8740 h1         1 AZ4       0.033200
     47 H13          3.3410    -6.2450     2.1110 h1         1 AZ4       0.033200
     48 H14          2.3030    -4.2710     4.1800 h1         1 AZ4       0.029950
     49 H15          3.6950    -4.0460     3.1030 h1         1 AZ4       0.029950
     50 H16          2.8640   -10.4030     4.8720 h4         1 AZ4      -0.003400
     51 H17          0.5130   -10.5690     1.2910 h4         1 AZ4      -0.003400
     52 H18          1.5340     0.4180    -1.8910 ho         1 AZ4       0.405000
     53 H19          1.7200     2.5390     0.3510 hc         1 AZ4       0.030700
     54 H20          3.2680     2.4500     1.2030 hc         1 AZ4       0.030700
     55 H21          3.1030     5.6480     4.4460 h4         1 AZ4      -0.000400
     56 H22          0.0430   -12.4920     2.0670 h1         1 AZ4       0.036700
     57 H23          1.5200   -12.4310     1.0950 h1         1 AZ4       0.036700
     58 F1           0.8580     7.0190     4.2190 f          1 AZ4      -0.110900
     59 O1           2.0560    -0.0010    -1.2260 oh         1 AZ4      -0.443100
@<TRIPOS>BOND
     1     1    18 1   
     2     1    19 2   
     3     1    35 1   
     4     2     3 1   
     5     2     9 1   
     6     2    18 1   
     7     2    36 1   
     8     3    20 1   
     9     3    37 1   
    10     3    38 1   
    11     4    25 2   
    12     5    16 1   
    13     5    29 1   
    14     6    14 ar  
    15     6    15 ar  
    16     7     8 ar  
    17     7    23 ar  
    18     7    58 1   
    19     8    24 ar  
    20     8    39 1   
    21     9    25 1   
    22     9    40 1   
    23     9    41 1   
    24    10    11 1   
    25    10    27 1   
    26    10    42 1   
    27    10    43 1   
    28    11    28 1   
    29    11    44 1   
    30    11    45 1   
    31    12    13 1   
    32    12    28 1   
    33    12    46 1   
    34    12    47 1   
    35    13    27 1   
    36    13    48 1   
    37    13    49 1   
    38    14    28 1   
    39    14    34 ar  
    40    15    16 ar  
    41    15    50 1   
    42    16    17 ar  
    43    17    34 ar  
    44    17    51 1   
    45    18    59 1   
    46    20    21 1   
    47    20    53 1   
    48    20    54 1   
    49    21    22 ar  
    50    21    24 ar  
    51    22    23 ar  
    52    23    55 1   
    53    25    26 2   
    54    25    27 1   
    55    29    30 1   
    56    29    56 1   
    57    29    57 1   
    58    30    31 1   
    59    30    32 1   
    60    30    33 1   
    61    52    59 1   
@<TRIPOS>SUBSTRUCTURE
     1 AZ4         1 TEMP              0 ****  ****    0 ROOT
