@<TRIPOS>MOLECULE
molecule
   38    40     1     0     0
SMALL
bcc


@<TRIPOS>ATOM
      1 C3           0.0000     0.0000     0.0000 cc         1 AZ5      -0.354300
      2 C19         -4.1340    -2.0250    -6.7670 ca         1 AZ5       0.430200
      3 C21         -2.1370    -0.7350    -6.5930 ca         1 AZ5       0.430200
      4 C10         -5.1070     0.0020     0.2930 ca         1 AZ5       0.544200
      5 C20         -2.8990    -1.6630    -7.2880 ca         1 AZ5      -0.117700
      6 C9          -4.1070     0.0010     1.2460 ca         1 AZ5      -0.345200
      7 C2           1.3970     0.0000     0.0000 cc         1 AZ5       0.348600
      8 C4          -0.4180    -0.0010     1.2960 cd         1 AZ5       0.151300
      9 C8          -2.7780     0.0010     0.8160 ca         1 AZ5       0.780200
     10 C17         -3.7880    -0.5990    -5.0000 ca         1 AZ5       0.655300
     11 C12         -3.5100     0.0020    -1.3700 ca         1 AZ5       0.979900
     12 C1           2.2780     0.0000    -1.2230 c3         1 AZ5      -0.109400
     13 C16         -4.7490     1.4390    -3.9650 c3         1 AZ5      -0.104100
     14 C15         -4.2880     0.0020    -3.7120 c3         1 AZ5       0.227200
     15 N18         -4.5390    -1.4760    -5.6330 nb         1 AZ5      -0.708000
     16 N22         -2.6100    -0.2300    -5.4650 nb         1 AZ5      -0.708000
     17 N11         -4.7790     0.0020    -0.9910 nb         1 AZ5      -0.825000
     18 N13         -2.5210     0.0010    -0.4890 nb         1 AZ5      -0.836000
     19 N5           0.6900    -0.0000     2.0810 na         1 AZ5      -0.073600
     20 N6           1.8110     0.0000     1.2410 nd         1 AZ5      -0.512800
     21 N7          -1.7400     0.0000     1.7370 nu         1 AZ5      -0.741300
     22 N14         -3.2090     0.0020    -2.7220 nu         1 AZ5      -0.884900
     23 H3          -0.6380    -0.0000    -0.8760 ha         1 AZ5       0.198000
     24 H19         -4.7570    -2.7460    -7.2820 h4         1 AZ5       0.046600
     25 H21         -1.1680    -0.4270    -6.9680 h4         1 AZ5       0.046600
     26 H10         -6.1490     0.0020     0.5920 h4         1 AZ5       0.042100
     27 H11C         2.0810    -0.8880    -1.8110 hc         1 AZ5       0.049033
     28 H12C         2.0700     0.8810    -1.8180 hc         1 AZ5       0.049033
     29 H13C         3.3180     0.0080    -0.9190 hc         1 AZ5       0.049033
     30 H5           0.7040    -0.0000     3.0810 hn         1 AZ5       0.322700
     31 H7          -1.9410     0.0160     2.7170 hn         1 AZ5       0.466800
     32 H15         -5.1200    -0.5840    -3.3400 h1         1 AZ5       0.106700
     33 H14         -2.2550    -0.0290    -3.0220 hn         1 AZ5       0.472800
     34 H161        -3.9070     2.1120    -3.8570 hc         1 AZ5       0.052033
     35 H162        -5.1500     1.5190    -4.9680 hc         1 AZ5       0.052033
     36 H163        -5.5160     1.7040    -3.2470 hc         1 AZ5       0.052033
     37 Cl2         -4.4920     0.0000     2.9380 cl         1 AZ5      -0.105400
     38 F23         -2.4500    -2.2020    -8.4430 f          1 AZ5      -0.123900
@<TRIPOS>BOND
     1     1     7 1
     2     1     8 2
     3     2     5 ar
     4     2    15 ar
     5     3     5 ar
     6     3    16 ar
     7     4     6 ar
     8     4    17 ar
     9     5    38 1
    10     6     9 ar
    11     6    37 1
    12     7    12 1
    13     7    20 2
    14     8    19 1
    15     8    21 1
    16     9    18 ar
    17     9    21 1
    18    10    14 1
    19    10    15 ar
    20    10    16 ar
    21    11    17 ar
    22    11    18 ar
    23    11    22 1
    24    13    14 1
    25    14    22 1
    26    19    20 1
    27     1    23 1
    28     2    24 1
    29     3    25 1
    30     4    26 1
    31    12    27 1
    32    12    28 1
    33    12    29 1
    34    19    30 1
    35    21    31 1
    36    14    32 1
    37    22    33 1
    38    13    34 1
    39    13    35 1
    40    13    36 1
@<TRIPOS>SUBSTRUCTURE
     1 AZ5         1 TEMP              0 ****  ****    0 ROOT
