@<TRIPOS>MOLECULE
AZ5
   38    40     1     0     0
SMALL
bcc


@<TRIPOS>ATOM
      1 C3           0.0000     0.0000     0.0000 cc         1 AZ5      -0.357300
      2 C19         -4.1340    -2.0250    -6.7670 ca         1 AZ5       0.416200
      3 C21         -2.1370    -0.7350    -6.5930 ca         1 AZ5       0.416200
      4 C10         -5.1070     0.0020     0.2930 ca         1 AZ5       0.540200
      5 C20         -2.8990    -1.6630    -7.2880 ca         1 AZ5      -0.130700
      6 C9          -4.1070     0.0010     1.2460 ca         1 AZ5      -0.426200
      7 C2           1.3970     0.0000     0.0000 cc         1 AZ5       0.376600
      8 C4          -0.4180    -0.0010     1.2960 cd         1 AZ5      -0.168700
      9 C8          -2.7780     0.0010     0.8160 ca         1 AZ5       0.577200
     10 C17         -3.7880    -0.5990    -5.0000 ca         1 AZ5       0.566300
     11 C12         -3.5100     0.0020    -1.3700 ca         1 AZ5       0.758900
     12 C1           2.2780     0.0000    -1.2230 c3         1 AZ5      -0.002400
     13 C16         -4.7490     1.4390    -3.9650 c3         1 AZ5      -0.010100
     14 C15         -4.2880     0.0020    -3.7120 c3         1 AZ5       0.099200
     15 N18         -4.5390    -1.4760    -5.6330 nb         1 AZ5      -0.585000
     16 N22         -2.6100    -0.2300    -5.4650 nb         1 AZ5      -0.585000
     17 N11         -4.7790     0.0020    -0.9910 nb         1 AZ5      -0.735000
     18 N13         -2.5210     0.0010    -0.4890 nb         1 AZ5      -0.730000
     19 N5           0.6900    -0.0000     2.0810 na         1 AZ5       0.409400
     20 N6           1.8110     0.0000     1.2410 nd         1 AZ5      -0.661800
     21 N7          -1.7400     0.0000     1.7370 nu         1 AZ5      -0.256300
     22 N14         -3.2090     0.0020    -2.7220 nu         1 AZ5      -0.470900
     23 H3          -0.6380    -0.0000    -0.8760 ha         1 AZ5       0.187000
     24 H19         -4.7570    -2.7460    -7.2820 h4         1 AZ5       0.002100
     25 H21         -1.1680    -0.4270    -6.9680 h4         1 AZ5       0.002100
     26 H10         -6.1490     0.0020     0.5920 h4         1 AZ5      -0.011900
     27 H11C         2.0810    -0.8880    -1.8110 hc         1 AZ5       0.009033
     28 H12C         2.0700     0.8810    -1.8180 hc         1 AZ5       0.009033
     29 H13C         3.3180     0.0080    -0.9190 hc         1 AZ5       0.009033
     30 H5           0.7040    -0.0000     3.0810 hn         1 AZ5       0.144700
     31 H7          -1.9410     0.0160     2.7170 hn         1 AZ5       0.286800
     32 H15         -5.1200    -0.5840    -3.3400 h1         1 AZ5       0.074700
     33 H14         -2.2550    -0.0290    -3.0220 hn         1 AZ5       0.314800
     34 H161        -3.9070     2.1120    -3.8570 hc         1 AZ5       0.016367
     35 H162        -5.1500     1.5190    -4.9680 hc         1 AZ5       0.016367
     36 H163        -5.5160     1.7040    -3.2470 hc         1 AZ5       0.016367
     37 Cl2         -4.4920     0.0000     2.9380 cl         1 AZ5      -0.007400
     38 F23         -2.4500    -2.2020    -8.4430 f          1 AZ5      -0.108900
@<TRIPOS>BOND
     1     1     7 1   
     2     1     8 2   
     3     1    23 1   
     4     2     5 ar  
     5     2    15 ar  
     6     2    24 1   
     7     3     5 ar  
     8     3    16 ar  
     9     3    25 1   
    10     4     6 ar  
    11     4    17 ar  
    12     4    26 1   
    13     5    38 1   
    14     6     9 ar  
    15     6    37 1   
    16     7    12 1   
    17     7    20 2   
    18     8    19 1   
    19     8    21 1   
    20     9    18 ar  
    21     9    21 1   
    22    10    14 1   
    23    10    15 ar  
    24    10    16 ar  
    25    11    17 ar  
    26    11    18 ar  
    27    11    22 1   
    28    12    27 1   
    29    12    28 1   
    30    12    29 1   
    31    13    14 1   
    32    13    34 1   
    33    13    35 1   
    34    13    36 1   
    35    14    22 1   
    36    14    32 1   
    37    19    20 1   
    38    19    30 1   
    39    21    31 1   
    40    22    33 1   
@<TRIPOS>SUBSTRUCTURE
     1 AZ5         1 TEMP              0 ****  ****    0 ROOT
