@<TRIPOS>MOLECULE
AZ6
   57    60     1     0     0
SMALL
bcc


@<TRIPOS>ATOM
      1 C1          1.3670   -0.1300   -0.6500 c3        1 AZ6     -0.104100
      2 C2         -0.0760    0.0070   -0.1680 c3        1 AZ6      0.069400
      3 C3         -0.1490   -0.1020    1.3590 c3        1 AZ6     -0.333600
      4 N6         -1.0040   -0.8770   -0.8940 n         1 AZ6     -0.543900
      5 C7         -1.4940   -1.7180    4.0970 c3        1 AZ6      0.212800
      6 C8         -0.6290   -2.9290    7.6020 ca        1 AZ6      0.831900
      7 C9         -1.9200   -4.0910    9.1550 ca        1 AZ6      0.423700
      8 C10        -0.8430   -4.0690   10.0790 ca        1 AZ6     -0.157500
      9 C11         0.1060   -4.8930   12.0870 c3        1 AZ6      0.172700
     10 C12        -0.3040   -5.6880   13.2820 ca        1 AZ6     -0.100300
     11 C13        -1.5610   -5.5150   13.8690 ca        1 AZ6     -0.079000
     12 C14        -1.9090   -6.2460   15.0040 ca        1 AZ6     -0.135000
     13 C15        -1.0080   -7.1490   15.5640 ca        1 AZ6     -0.084000
     14 C16         0.2530   -7.3240   14.9770 ca        1 AZ6     -0.017000
     15 C19         0.3480   -3.4510    9.6530 ca        1 AZ6      0.423700
     16 C20        -2.0450   -0.1080   -1.4680 c         1 AZ6      0.792500
     17 C21        -0.5900    1.4460   -0.5460 c         1 AZ6      0.694500
     18 S1          0.2400   -1.6510    2.0410 s6        1 AZ6      1.455900
     19 O1         -0.6080   -2.5920    1.4160 o         1 AZ6     -0.647300
     20 O2          1.6270   -1.8530    1.9190 o         1 AZ6     -0.647300
     21 N1         -0.1700   -1.4550    3.5920 n3        1 AZ6     -0.826500
     22 C4          0.7610   -1.0310    4.6070 c3        1 AZ6      0.212800
     23 C5          0.7730   -1.9370    5.8580 c3        1 AZ6      0.182800
     24 N2         -0.5620   -2.2250    6.3630 nh        1 AZ6     -0.716300
     25 C6         -1.5170   -2.6310    5.3420 c3        1 AZ6      0.182800
     26 N3         -1.8330   -3.5440    7.9420 nb        1 AZ6     -0.714000
     27 O3         -1.0780   -4.6270   11.3150 os        1 AZ6     -0.311900
     28 C17         1.1780   -8.2450   15.5410 cg        1 AZ6      0.230800
     29 N4          1.9340   -8.9980   16.0040 n1        1 AZ6     -0.357800
     30 C18         0.6050   -6.5980   13.8320 ca        1 AZ6     -0.085000
     31 N5          0.4770   -2.8940    8.4390 nb        1 AZ6     -0.714000
     32 N7         -1.7620    1.2790   -1.2890 n         1 AZ6     -0.611500
     33 H1          1.4190   -0.0730   -1.7640 hc        1 AZ6      0.068367
     34 H2          1.9680    0.7070   -0.2180 hc        1 AZ6      0.068367
     35 H3          1.8040   -1.1030   -0.3210 hc        1 AZ6      0.068367
     36 H4         -1.1750    0.2230    1.6810 h1        1 AZ6      0.124200
     37 H5          0.5490    0.6880    1.7530 h1        1 AZ6      0.124200
     38 H6         -1.2080   -1.7860   -0.5380 hn        1 AZ6      0.359500
     39 H7         -2.1060   -2.2280    3.2970 h1        1 AZ6      0.066200
     40 H8         -1.9870   -0.7370    4.3600 h1        1 AZ6      0.066200
     41 H9         -2.8810   -4.5710    9.4180 h4        1 AZ6      0.038600
     42 H10         0.8480   -5.4560   11.4590 h1        1 AZ6      0.053200
     43 H11         0.5520   -3.9120   12.4100 h1        1 AZ6      0.053200
     44 H12        -2.2750   -4.8040   13.4230 ha        1 AZ6      0.154000
     45 H13        -2.9010   -6.1090   15.4610 ha        1 AZ6      0.144000
     46 H14        -1.2830   -7.7240   16.4620 ha        1 AZ6      0.148000
     47 H15         1.2460   -3.4000   10.2940 h4        1 AZ6      0.038600
     48 H16         1.8070   -1.0340    4.1820 h1        1 AZ6      0.066200
     49 H17         0.5030    0.0200    4.9250 h1        1 AZ6      0.066200
     50 H18         1.3270   -2.8890    5.6180 h1        1 AZ6      0.066950
     51 H19         1.3530   -1.3790    6.6480 h1        1 AZ6      0.066950
     52 H20        -1.3320   -3.6960    5.0190 h1        1 AZ6      0.066950
     53 H21        -2.5600   -2.5650    5.7640 h1        1 AZ6      0.066950
     54 H22         1.5930   -6.7450   13.3700 ha        1 AZ6      0.145000
     55 H23        -2.2780    1.9960   -1.7320 hn        1 AZ6      0.359500
     56 O4         -3.0360   -0.5450   -2.0740 o         1 AZ6     -0.602500
     57 O5         -0.0700    2.5180   -0.2340 o         1 AZ6     -0.578500
@<TRIPOS>BOND
     1    1    2 1   
     2    1   33 1   
     3    1   34 1   
     4    1   35 1   
     5    2    3 1   
     6    2    4 1   
     7    2   17 1   
     8    3   18 1   
     9    3   36 1   
    10    3   37 1   
    11    4   16 1   
    12    4   38 1   
    13    5   21 1   
    14    5   25 1   
    15    5   39 1   
    16    5   40 1   
    17    6   24 1   
    18    6   26 ar  
    19    6   31 ar  
    20    7    8 ar  
    21    7   26 ar  
    22    7   41 1   
    23    8   15 ar  
    24    8   27 1   
    25    9   10 1   
    26    9   27 1   
    27    9   42 1   
    28    9   43 1   
    29   10   11 ar  
    30   10   30 ar  
    31   11   12 ar  
    32   11   44 1   
    33   12   13 ar  
    34   12   45 1   
    35   13   14 ar  
    36   13   46 1   
    37   14   28 1   
    38   14   30 ar  
    39   15   31 ar  
    40   15   47 1   
    41   16   32 1   
    42   16   56 2   
    43   17   32 1   
    44   17   57 2   
    45   18   19 2   
    46   18   20 2   
    47   18   21 1   
    48   21   22 1   
    49   22   23 1   
    50   22   48 1   
    51   22   49 1   
    52   23   24 1   
    53   23   50 1   
    54   23   51 1   
    55   24   25 1   
    56   25   52 1   
    57   25   53 1   
    58   28   29 3   
    59   30   54 1   
    60   32   55 1   
@<TRIPOS>SUBSTRUCTURE
     1 AZ6         1 TEMP              0 ****  ****    0 ROOT
