@<TRIPOS>MOLECULE
molecule
   57    60     1     0     0
SMALL
bcc


@<TRIPOS>ATOM
      1 C1           1.5300     0.0000     0.0000 c3         1 AZ6      -0.114100
      2 C2           0.0000     0.0000     0.0000 c3         1 AZ6      -0.032600
      3 C3          -0.5360     0.0000     1.4330 c3         1 AZ6      -0.057600
      4 N6          -0.5170    -1.1590    -0.7470 ns         1 AZ6      -0.478900
      5 C7          -1.8430    -1.9410     4.1540 c3         1 AZ6       0.230800
      6 C8          -1.0960    -2.6540     7.6940 ca         1 AZ6       0.864900
      7 C9          -2.2580    -3.8100     9.3110 ca         1 AZ6       0.479200
      8 C10         -1.0750    -3.9820    10.0200 ca         1 AZ6      -0.206500
      9 C11          0.1970    -4.7850    11.8630 c3         1 AZ6      -0.332300
     10 C12          0.0140    -5.5540    13.1460 ca         1 AZ6      -0.072300
     11 C13         -0.2770    -4.8810    14.3190 ca         1 AZ6      -0.043000
     12 C14         -0.4520    -5.5810    15.5000 ca         1 AZ6      -0.152000
     13 C15         -0.3360    -6.9550    15.5150 ca         1 AZ6      -0.073000
     14 C16         -0.0420    -7.6410    14.3340 ca         1 AZ6      -0.033000
     15 C19          0.0980    -3.4540     9.4920 ca         1 AZ6       0.479200
     16 C20         -1.2320    -0.6660    -1.7750 c          1 AZ6       0.735500
     17 C21         -0.5370     1.1900    -0.7710 c          1 AZ6       0.688500
     18 S1           0.1050    -1.4470     2.3190 s6         1 AZ6       1.365900
     19 O1          -0.4560    -2.6430     1.7930 o          1 AZ6      -0.608300
     20 O2           1.5050    -1.3240     2.5270 o          1 AZ6      -0.608300
     21 N1          -0.5460    -1.3250     3.8370 n3         1 AZ6      -0.822500
     22 C4           0.1570    -0.5950     4.9030 c3         1 AZ6       0.230800
     23 C5           0.2400    -1.4990     6.1370 c3         1 AZ6       0.167300
     24 N2          -1.1080    -1.9670     6.4900 nh         1 AZ6      -0.674300
     25 C6          -1.6820    -2.7920     5.4170 c3         1 AZ6       0.167300
     26 N3          -2.2300    -3.1480     8.1640 nb         1 AZ6      -0.742000
     27 O3          -1.0630    -4.6550    11.2020 os         1 AZ6      -0.277900
     28 C17          0.0800    -9.0680    14.3420 cg         1 AZ6       0.239800
     29 N4           0.1580   -10.2010    14.3550 n1         1 AZ6      -0.363800
     30 C18          0.1330    -6.9290    13.1470 ca         1 AZ6      -0.085000
     31 N5           0.0500    -2.8030     8.3400 nb         1 AZ6      -0.742000
     32 N7          -1.2460     0.6710    -1.7930 ns         1 AZ6      -0.615500
     33 H1           1.8910    -0.2950    -0.9780 hc         1 AZ6       0.073033
     34 H2           1.8910    -0.7000     0.7440 hc         1 AZ6       0.073033
     35 H3           1.8910     0.9940     0.2340 hc         1 AZ6       0.073033
     36 H4          -1.0280    -0.9440     1.6340 h1         1 AZ6       0.020200
     37 H5          -1.2460     0.8090     1.5530 h1         1 AZ6       0.020200
     38 H6          -0.3860    -1.3360    -1.7240 hn         1 AZ6       0.365500
     39 H7          -2.6100    -1.1760     4.1280 h1         1 AZ6       0.067700
     40 H8          -2.0650    -2.6940     3.4070 h1         1 AZ6       0.067700
     41 H9          -3.1860    -4.2110     9.6990 h4         1 AZ6       0.060100
     42 H10         -0.7400    -4.7620    11.3190 h1         1 AZ6       0.218200
     43 H11          0.9550    -5.2670    11.2570 h1         1 AZ6       0.218200
     44 H12         -0.3730    -3.8020    14.3150 ha         1 AZ6       0.152000
     45 H13         -0.6790    -5.0490    16.4160 ha         1 AZ6       0.141000
     46 H14         -0.4730    -7.5000    16.4420 ha         1 AZ6       0.142000
     47 H15          1.0340    -3.5730    10.0240 h4         1 AZ6       0.060100
     48 H16         -0.4080     0.2960     5.1490 h1         1 AZ6       0.067700
     49 H17          1.1370    -0.3070     4.5420 h1         1 AZ6       0.067700
     50 H18          0.8950    -2.3330     5.9170 h1         1 AZ6       0.066950
     51 H19          0.6510    -0.9300     6.9620 h1         1 AZ6       0.066950
     52 H20         -2.6560    -3.1540     5.7220 h1         1 AZ6       0.066950
     53 H21         -1.0410    -3.6360     5.1920 h1         1 AZ6       0.066950
     54 H22          0.3580    -7.4540    12.2260 ha         1 AZ6       0.137000
     55 H23         -1.6950     1.2430    -2.4800 hn         1 AZ6       0.364500
     56 O4          -1.8010    -1.3590    -2.5960 o          1 AZ6      -0.624500
     57 O5          -0.3630     2.3630    -0.5200 o          1 AZ6      -0.549500
@<TRIPOS>BOND
     1    12    13 ar
     2    12    11 ar
     3    13    14 ar
     4    11    10 ar
     5    14    28 1
     6    14    30 ar
     7    28    29 3
     8    10    30 ar
     9    10     9 1
    10     9    27 1
    11    27     8 1
    12     8     7 ar
    13     8    15 ar
    14     7    26 ar
    15    15    31 ar
    16    26     6 ar
    17    31     6 ar
    18     6    24 1
    19    24    23 1
    20    24    25 1
    21    23    22 1
    22    25     5 1
    23    22    21 1
    24    57    17 2
    25    32    17 1
    26    32    16 1
    27     5    21 1
    28    21    18 1
    29    17     2 1
    30    56    16 2
    31    16     4 1
    32     2     4 1
    33     2     3 1
    34     2     1 1
    35    18    20 2
    36    18     3 1
    37    18    19 2
    38     1    33 1
    39     1    34 1
    40     1    35 1
    41     3    36 1
    42     3    37 1
    43     4    38 1
    44     5    39 1
    45     5    40 1
    46     7    41 1
    47     9    42 1
    48     9    43 1
    49    11    44 1
    50    12    45 1
    51    13    46 1
    52    15    47 1
    53    22    48 1
    54    22    49 1
    55    23    50 1
    56    23    51 1
    57    25    52 1
    58    25    53 1
    59    30    54 1
    60    32    55 1
@<TRIPOS>SUBSTRUCTURE
     1 AZ6         1 TEMP              0 ****  ****    0 ROOT
