@<TRIPOS>MOLECULE
molecule
   36    38     1     0     0
SMALL
bcc


@<TRIPOS>ATOM
      1 Cl6          0.0000     0.0000     0.0000 cl         1 AZ7      -0.115400
      2 C5           1.7360     0.0000     0.0000 ca         1 AZ7       0.007400
      3 C6           2.4250     0.0000     1.2060 ca         1 AZ7      -0.116000
      4 C1           3.8050     0.0010     1.2220 ca         1 AZ7       0.036400
      5 Cl5          4.6570     0.0000     2.7340 cl         1 AZ7      -0.128400
      6 C4           2.4190    -0.0050    -1.1960 ca         1 AZ7      -0.053000
      7 C3           3.8170    -0.0040    -1.1970 ca         1 AZ7       0.119400
      8 N9           4.7520    -0.0090    -2.1810 nc         1 AZ7      -0.571100
      9 C8           5.9420    -0.0070    -1.6560 cd         1 AZ7       0.455800
     10 N7           5.8530    -0.0010    -0.2980 na         1 AZ7      -0.263300
     11 C2           4.5100     0.0010     0.0250 ca         1 AZ7      -0.100200
     12 C10          7.2310    -0.0100    -2.4360 c3         1 AZ7      -0.088700
     13 C11          7.2380    -1.1970    -3.4020 c3         1 AZ7      -0.005400
     14 C19          6.1350    -1.0120    -4.4450 c3         1 AZ7      -0.194400
     15 C20          6.0610    -2.2360    -5.3220 c          1 AZ7       0.894600
     16 O22          6.8140    -3.1610    -5.1320 o          1 AZ7      -0.853800
     17 O21          5.1590    -2.2970    -6.3130 o          1 AZ7      -0.853800
     18 C12          8.5750    -1.2730    -4.0940 ca         1 AZ7      -0.003300
     19 C17          9.3590    -2.4030    -3.9590 ca         1 AZ7      -0.092000
     20 C16         10.5860    -2.4740    -4.5940 ca         1 AZ7      -0.144000
     21 C15         11.0280    -1.4130    -5.3640 ca         1 AZ7       0.017400
     22 Cl9         12.5680    -1.5010    -6.1610 cl         1 AZ7      -0.158400
     23 C14         10.2430    -0.2820    -5.4990 ca         1 AZ7      -0.144000
     24 C13          9.0140    -0.2150    -4.8680 ca         1 AZ7      -0.092000
     25 H6           1.8760    -0.0010     2.1390 ha         1 AZ7       0.149000
     26 H4           1.8770     0.0800    -2.1300 ha         1 AZ7       0.166000
     27 H7           6.6180     0.0020     0.3470 hn         1 AZ7       0.305700
     28 H101         7.3160     0.9130    -2.9960 hc         1 AZ7       0.052200
     29 H102         8.0670    -0.0960    -1.7520 hc         1 AZ7       0.052200
     30 H11          7.0640    -2.1130    -2.8510 hc         1 AZ7       0.072700
     31 H191         5.1850    -0.8690    -3.9450 hc         1 AZ7       0.057700
     32 H192         6.3560    -0.1440    -5.0550 hc         1 AZ7       0.057700
     33 H17          9.0330    -3.2150    -3.3200 ha         1 AZ7       0.140000
     34 H13          8.7430     0.7980    -5.1380 ha         1 AZ7       0.140000
     35 H16         11.2070    -3.3540    -4.4760 ha         1 AZ7       0.127000
     36 H14         10.5770     0.5380    -6.1220 ha         1 AZ7       0.127000
@<TRIPOS>BOND
     1     1     2 1
     2     2     3 ar
     3     2     6 ar
     4     3     4 ar
     5     4     5 1
     6     4    11 ar
     7     6     7 ar
     8     7     8 1
     9     7    11 ar
    10     8     9 2
    11     9    10 1
    12     9    12 1
    13    10    11 1
    14    12    13 1
    15    13    14 1
    16    13    18 1
    17    14    15 1
    18    15    16 1
    19    15    17 1
    20    18    19 ar
    21    18    24 ar
    22    19    20 ar
    23    20    21 ar
    24    21    22 1
    25    21    23 ar
    26    23    24 ar
    27     3    25 1
    28     6    26 1
    29    10    27 1
    30    12    28 1
    31    12    29 1
    32    13    30 1
    33    14    31 1
    34    14    32 1
    35    19    33 1
    36    24    34 1
    37    20    35 1
    38    23    36 1
@<TRIPOS>SUBSTRUCTURE
     1 AZ7         1 TEMP              0 ****  ****    0 ROOT
