@<TRIPOS>MOLECULE
AZ7
   36    38     1     0     0
SMALL
bcc


@<TRIPOS>ATOM
      1 CL6         0.8610    1.7150    1.4760 cl        1 AZ7     -0.132400
      2 C5          2.0960    0.8930    0.6250 ca        1 AZ7     -0.002600
      3 C6          2.3110   -0.4680    0.9200 ca        1 AZ7     -0.136000
      4 C1          3.3010   -1.1850    0.2600 ca        1 AZ7      0.033400
      5 CL5         3.5700   -2.8190    0.6070 cl        1 AZ7     -0.064400
      6 C4          2.8380    1.5870   -0.3200 ca        1 AZ7     -0.081000
      7 C3          3.8440    0.8870   -1.0030 ca        1 AZ7      0.075400
      8 N9          4.7450    1.2990   -1.9900 nc        1 AZ7     -0.615100
      9 C8          5.4920    0.1950   -2.2820 cd        1 AZ7      0.427800
     10 N7          5.1250   -0.9280   -1.5210 na        1 AZ7     -0.233300
     11 C2          4.0770   -0.5220   -0.7050 ca        1 AZ7     -0.080200
     12 C10         6.5960    0.2150   -3.2930 c3        1 AZ7     -0.091700
     13 C11         7.3970   -1.0730   -3.4100 c3        1 AZ7     -0.020400
     14 C19         6.5710   -2.2110   -4.0070 c3        1 AZ7     -0.211400
     15 C20         6.7560   -3.4910   -3.1730 c         1 AZ7      0.905600
     16 O22         6.2160   -3.5330   -2.0220 o         1 AZ7     -0.832300
     17 O21         7.4460   -4.4300   -3.6520 o         1 AZ7     -0.832300
     18 C12         8.6620   -0.8910   -4.1970 ca        1 AZ7     -0.056300
     19 C17         9.4930   -2.0170   -4.3530 ca        1 AZ7     -0.123500
     20 C16        10.6980   -1.9220   -5.0390 ca        1 AZ7     -0.133500
     21 C15        11.0840   -0.6940   -5.5870 ca        1 AZ7      0.004400
     22 CL9        12.5680   -0.5660   -6.4240 cl        1 AZ7     -0.135400
     23 C14        10.2640    0.4260   -5.4610 ca        1 AZ7     -0.133500
     24 C13         9.0550    0.3210   -4.7690 ca        1 AZ7     -0.123500
     25 H6          1.6880   -0.9640    1.6800 ha        1 AZ7      0.147000
     26 H4          2.6540    2.6490   -0.5360 ha        1 AZ7      0.150000
     27 H7          5.4960   -1.8720   -1.6120 hn        1 AZ7      0.389700
     28 H101        6.1470    0.4710   -4.2910 hc        1 AZ7      0.064200
     29 H102        7.2850    1.0550   -2.9950 hc        1 AZ7      0.064200
     30 H11         7.7140   -1.3800   -2.3660 hc        1 AZ7      0.082700
     31 H191        5.4850   -1.9440   -4.0230 hc        1 AZ7      0.043700
     32 H192        6.8850   -2.4130   -5.0610 hc        1 AZ7      0.043700
     33 H17         9.1560   -2.9930   -3.9440 ha        1 AZ7      0.166500
     34 H13         8.4190    1.2150   -4.6980 ha        1 AZ7      0.166500
     35 H16        11.3370   -2.8100   -5.1520 ha        1 AZ7      0.136500
     36 H14        10.5600    1.3890   -5.9020 ha        1 AZ7      0.136500
@<TRIPOS>BOND
     1    1    2 1   
     2    2    3 ar  
     3    2    6 ar  
     4    3    4 ar  
     5    3   25 1   
     6    4    5 1   
     7    4   11 ar  
     8    6    7 ar  
     9    6   26 1   
    10    7    8 1   
    11    7   11 ar  
    12    8    9 2   
    13    9   10 1   
    14    9   12 1   
    15   10   11 1   
    16   10   27 1   
    17   12   13 1   
    18   12   28 1   
    19   12   29 1   
    20   13   14 1   
    21   13   18 1   
    22   13   30 1   
    23   14   15 1   
    24   14   31 1   
    25   14   32 1   
    26   15   16 1   
    27   15   17 1   
    28   18   19 ar  
    29   18   24 ar  
    30   19   20 ar  
    31   19   33 1   
    32   20   21 ar  
    33   20   35 1   
    34   21   22 1   
    35   21   23 ar  
    36   23   24 ar  
    37   23   36 1   
    38   24   34 1   
@<TRIPOS>SUBSTRUCTURE
     1 AZ7         1 TEMP              0 ****  ****    0 ROOT
