@<TRIPOS>MOLECULE
molecule
   15    16     1     0     0
SMALL
bcc


@<TRIPOS>ATOM
      1 C7           0.0000     0.0000     0.0000 ca         1 AZ8       0.377900
      2 N6           1.3260     0.0000     0.0000 nb         1 AZ8      -0.312000
      3 N5           1.9660     0.0000     1.1200 nb         1 AZ8      -0.302000
      4 C4           1.3410    -0.0010     2.2840 ca         1 AZ8       0.572900
      5 N3           0.0220    -0.0020     2.3560 nb         1 AZ8      -0.597000
      6 C2          -0.6790    -0.0010     1.2310 ca         1 AZ8       0.257500
      7 C1          -2.1560    -0.0010     1.2160 c          1 AZ8       0.603000
      8 O1          -2.7930    -0.0010     2.2510 o          1 AZ8      -0.545500
      9 N10         -2.7800    -0.0010     0.0170 ns         1 AZ8      -0.564500
     10 C9          -2.0820     0.0000    -1.1300 c          1 AZ8       0.816500
     11 O2          -2.6910     0.0000    -2.1820 o          1 AZ8      -0.629500
     12 N8          -0.7380    -0.0050    -1.1680 ns         1 AZ8      -0.519400
     13 H1           1.9220    -0.0010     3.1980 h5         1 AZ8       0.083100
     14 H2          -3.7800    -0.0020    -0.0170 hn         1 AZ8       0.377500
     15 H3          -0.2670    -0.0040    -2.0510 hn         1 AZ8       0.379500
@<TRIPOS>BOND
     1     2     3 ar
     2     2     1 ar
     3    12     1 1
     4    12    10 1
     5     3     4 ar
     6    11    10 2
     7     1     6 ar
     8    10     9 1
     9     4     5 ar
    10     6     5 ar
    11     6     7 1
    12     9     7 1
    13     7     8 2
    14     4    13 1
    15     9    14 1
    16    12    15 1
@<TRIPOS>SUBSTRUCTURE
     1 AZ8         1 TEMP              0 ****  ****    0 ROOT
