@<TRIPOS>MOLECULE
AZ8
   15    16     1     0     0
SMALL
bcc


@<TRIPOS>ATOM
      1 C7           0.0000     0.0000     0.0000 ca         1 AZ8       0.220900
      2 N6           1.3260     0.0000     0.0000 nb         1 AZ8      -0.292000
      3 N5           1.9660     0.0000     1.1200 nb         1 AZ8      -0.258000
      4 C4           1.3410    -0.0010     2.2840 ca         1 AZ8       0.530900
      5 N3           0.0220    -0.0020     2.3560 nb         1 AZ8      -0.464000
      6 C2          -0.6790    -0.0010     1.2310 ca         1 AZ8       0.183500
      7 C1          -2.1560    -0.0010     1.2160 c          1 AZ8       0.509000
      8 O1          -2.7930    -0.0010     2.2510 o          1 AZ8      -0.589500
      9 N10         -2.7800    -0.0010     0.0170 ns         1 AZ8      -0.135500
     10 C9          -2.0820     0.0000    -1.1300 c          1 AZ8       0.581500
     11 O2          -2.6910     0.0000    -2.1820 o          1 AZ8      -0.680500
     12 N8          -0.7380    -0.0050    -1.1680 ns         1 AZ8      -0.052400
     13 H1           1.9220    -0.0010     3.1980 h5         1 AZ8       0.022100
     14 H2          -3.7800    -0.0020    -0.0170 hn         1 AZ8       0.215500
     15 H3          -0.2670    -0.0040    -2.0510 hn         1 AZ8       0.207500
@<TRIPOS>BOND
     1     1     2 ar  
     2     1     6 ar  
     3     1    12 1   
     4     2     3 ar  
     5     3     4 ar  
     6     4     5 ar  
     7     4    13 1   
     8     5     6 ar  
     9     6     7 1   
    10     7     8 2   
    11     7     9 1   
    12     9    10 1   
    13     9    14 1   
    14    10    11 2   
    15    10    12 1   
    16    12    15 1   
@<TRIPOS>SUBSTRUCTURE
     1 AZ8         1 TEMP              0 ****  ****    0 ROOT
