@<TRIPOS>MOLECULE
molecule
   18    19     1     0     0
SMALL
bcc


@<TRIPOS>ATOM
      1 C7           0.0000     0.0000     0.0000 ca         1 AZ9       0.377900
      2 N6           1.3260     0.0000     0.0000 nb         1 AZ9      -0.314000
      3 N5           1.9660     0.0000     1.1210 nb         1 AZ9      -0.305000
      4 C4           1.3410     0.0000     2.2850 ca         1 AZ9       0.572900
      5 N3           0.0220    -0.0010     2.3560 nb         1 AZ9      -0.599000
      6 C2          -0.6790    -0.0060     1.2320 ca         1 AZ9       0.258500
      7 C1          -2.1570    -0.0070     1.2170 c          1 AZ9       0.604000
      8 O1          -2.7920    -0.0030     2.2520 o          1 AZ9      -0.546500
      9 N10         -2.7800    -0.0120     0.0170 n          1 AZ9      -0.475400
     10 C12         -4.2440    -0.0140    -0.0330 c3         1 AZ9       0.097300
     11 C9          -2.0820    -0.0170    -1.1290 c          1 AZ9       0.816500
     12 O2          -2.6920    -0.0220    -2.1810 o          1 AZ9      -0.634500
     13 N8          -0.7380    -0.0010    -1.1670 ns         1 AZ9      -0.518400
     14 H1           1.9220     0.0000     3.1990 h5         1 AZ9       0.082100
     15 H2          -4.6140    -0.9990     0.2270 h1         1 AZ9       0.068033
     16 H3          -4.5720     0.2430    -1.0330 h1         1 AZ9       0.068033
     17 H4          -4.6300     0.7130     0.6720 h1         1 AZ9       0.068033
     18 H5          -0.2680    -0.0060    -2.0510 hn         1 AZ9       0.377500
@<TRIPOS>BOND
     1     5     4 ar
     2     5     6 ar
     3     4     3 ar
     4     8     7 2
     5     6     7 1
     6     6     1 ar
     7     7     9 1
     8     3     2 ar
     9     1     2 ar
    10     1    13 1
    11     9    10 1
    12     9    11 1
    13    11    13 1
    14    11    12 2
    15     4    14 1
    16    10    15 1
    17    10    16 1
    18    10    17 1
    19    13    18 1
@<TRIPOS>SUBSTRUCTURE
     1 AZ9         1 TEMP              0 ****  ****    0 ROOT
