@<TRIPOS>MOLECULE
AZ9
   18    19     1     0     0
SMALL
bcc


@<TRIPOS>ATOM
      1 C7           0.0000     0.0000     0.0000 ca         1 AZ9       0.219900
      2 N6           1.3260     0.0000     0.0000 nb         1 AZ9      -0.293000
      3 N5           1.9660     0.0000     1.1210 nb         1 AZ9      -0.260000
      4 C4           1.3410     0.0000     2.2850 ca         1 AZ9       0.529900
      5 N3           0.0220    -0.0010     2.3560 nb         1 AZ9      -0.465000
      6 C2          -0.6790    -0.0060     1.2320 ca         1 AZ9       0.183500
      7 C1          -2.1570    -0.0070     1.2170 c          1 AZ9       0.518000
      8 O1          -2.7920    -0.0030     2.2520 o          1 AZ9      -0.590500
      9 N10         -2.7800    -0.0120     0.0170 n          1 AZ9      -0.095400
     10 C12         -4.2440    -0.0140    -0.0330 c3         1 AZ9       0.069300
     11 C9          -2.0820    -0.0170    -1.1290 c          1 AZ9       0.591500
     12 O2          -2.6920    -0.0220    -2.1810 o          1 AZ9      -0.684500
     13 N8          -0.7380    -0.0010    -1.1670 ns         1 AZ9      -0.052400
     14 H1           1.9220     0.0000     3.1990 h5         1 AZ9       0.021100
     15 H2          -4.6140    -0.9990     0.2270 h1         1 AZ9       0.033367
     16 H3          -4.5720     0.2430    -1.0330 h1         1 AZ9       0.033367
     17 H4          -4.6300     0.7130     0.6720 h1         1 AZ9       0.033367
     18 H5          -0.2680    -0.0060    -2.0510 hn         1 AZ9       0.206500
@<TRIPOS>BOND
     1     1     2 ar  
     2     1     6 ar  
     3     1    13 1   
     4     2     3 ar  
     5     3     4 ar  
     6     4     5 ar  
     7     4    14 1   
     8     5     6 ar  
     9     6     7 1   
    10     7     8 2   
    11     7     9 1   
    12     9    10 1   
    13     9    11 1   
    14    10    15 1   
    15    10    16 1   
    16    10    17 1   
    17    11    12 2   
    18    11    13 1   
    19    13    18 1   
@<TRIPOS>SUBSTRUCTURE
     1 AZ9         1 TEMP              0 ****  ****    0 ROOT
