@<TRIPOS>MOLECULE
AZA
   14    15     1     0     0
SMALL
bcc


@<TRIPOS>ATOM
      1 N1         -0.0260   -0.0000    0.0080 n         1 AZA     -0.591500
      2 C2          1.3730   -0.0020   -0.0630 c         1 AZA      0.823500
      3 O2          1.9810   -0.0070   -1.1510 o         1 AZA     -0.619500
      4 N3          2.1440    0.0020    1.1350 n         1 AZA     -0.445100
      5 C4          1.4630    0.0080    2.3270 cc        1 AZA      0.013000
      6 C5          0.0270    0.0100    2.4110 cd        1 AZA      0.137800
      7 C6         -0.7840    0.0060    1.2060 c         1 AZA      0.665000
      8 O6         -2.0180    0.0070    1.1320 o         1 AZA     -0.564500
      9 N7         -0.3020    0.0160    3.7780 nd        1 AZA     -0.248000
     10 N8          0.7690    0.0170    4.4590 nc        1 AZA     -0.163800
     11 N9          1.8740    0.0130    3.6620 na        1 AZA     -0.073600
     12 HN1        -0.5120   -0.0030   -0.8650 hn        1 AZA      0.362500
     13 HN3         3.1350    0.0010    1.0650 hn        1 AZA      0.362500
     14 HN9         2.7940    0.0130    4.0330 hn        1 AZA      0.339700
@<TRIPOS>BOND
     1    1    2 1   
     2    1    7 1   
     3    1   12 1   
     4    2    3 2   
     5    2    4 1   
     6    4    5 1   
     7    4   13 1   
     8    5    6 2   
     9    5   11 1   
    10    6    7 1   
    11    6    9 1   
    12    7    8 2   
    13    9   10 2   
    14   10   11 1   
    15   11   14 1   
@<TRIPOS>SUBSTRUCTURE
     1 AZA         1 TEMP              0 ****  ****    0 ROOT
