@<TRIPOS>MOLECULE
molecule
   34    35     1     0     0
SMALL
bcc


@<TRIPOS>ATOM
      1 C1           0.0000     0.0000     0.0000 c3         1 AZB      -0.085100
      2 N2           3.1020    -5.7800    -2.2190 ne         1 AZB      -0.316400
      3 C3           2.0400     0.0000     1.4420 c3         1 AZB      -0.085100
      4 C4           2.8890    -8.3460    -2.1780 ca         1 AZB      -0.093000
      5 C5           3.3060    -9.5010    -2.8020 ca         1 AZB      -0.161000
      6 C6           4.1070    -9.4320    -3.9360 ca         1 AZB       0.121100
      7 C7           4.4930    -8.1980    -4.4450 ca         1 AZB      -0.161000
      8 C8           4.0810    -7.0370    -3.8290 ca         1 AZB      -0.093000
      9 C9           3.2740    -7.1020    -2.6870 ca         1 AZB       0.153400
     10 C11          2.8280    -1.0990    -1.8350 ca         1 AZB      -0.138000
     11 C12          3.2920    -2.2210    -2.4910 ca         1 AZB      -0.089500
     12 C13          2.9570    -3.4920    -2.0160 ca         1 AZB       0.091400
     13 C14          2.1540    -3.6160    -0.8790 ca         1 AZB      -0.089500
     14 C15          1.6970    -2.4850    -0.2350 ca         1 AZB      -0.138000
     15 C16          2.0320    -1.2300    -0.7110 ca         1 AZB      -0.053300
     16 C17          1.5300     0.0000     0.0000 c3         1 AZB      -0.035400
     17 H1          -0.3610    -0.7700     0.6710 hc         1 AZB       0.037700
     18 H1A         -0.3610     0.9660     0.3310 hc         1 AZB       0.037700
     19 H1B         -0.3610    -0.1960    -1.0020 hc         1 AZB       0.037700
     20 HO1          3.8830   -10.8230    -5.2010 ho         1 AZB       0.423000
     21 H3           1.5270    -0.7690     2.0070 hc         1 AZB       0.037700
     22 H3A          3.1050    -0.1970     1.4490 hc         1 AZB       0.037700
     23 H3B          1.8480     0.9660     1.8930 hc         1 AZB       0.037700
     24 H4           2.2650    -8.4010    -1.2940 ha         1 AZB       0.154000
     25 H5           3.0080   -10.4660    -2.4090 ha         1 AZB       0.146000
     26 H7           5.1170    -8.1480    -5.3290 ha         1 AZB       0.146000
     27 H8           4.3830    -6.0750    -4.2270 ha         1 AZB       0.154000
     28 H11          3.0870    -0.1130    -2.2020 ha         1 AZB       0.135500
     29 H12          3.9140    -2.1170    -3.3710 ha         1 AZB       0.149500
     30 H14          1.8900    -4.5980    -0.5050 ha         1 AZB       0.149500
     31 H15          1.0740    -2.5800     0.6470 ha         1 AZB       0.135500
     32 H17          1.8900     0.8850    -0.5100 hc         1 AZB       0.055700
     33 N1           3.4130    -4.6080    -2.6600 nf         1 AZB      -0.179400
     34 O1           4.5140   -10.5740    -4.5470 oh         1 AZB      -0.522100
@<TRIPOS>BOND
     1     1    16 1
     2    33     2 2
     3    33    12 1
     4    34     6 1
     5     2     9 1
     6     3    16 1
     7     4     5 ar
     8     4     9 ar
     9     5     6 ar
    10     6     7 ar
    11     7     8 ar
    12     8     9 ar
    13    10    11 ar
    14    10    15 ar
    15    11    12 ar
    16    12    13 ar
    17    13    14 ar
    18    14    15 ar
    19    15    16 1
    20     1    17 1
    21     1    18 1
    22     1    19 1
    23    34    20 1
    24     3    21 1
    25     3    22 1
    26     3    23 1
    27     4    24 1
    28     5    25 1
    29     7    26 1
    30     8    27 1
    31    10    28 1
    32    11    29 1
    33    13    30 1
    34    14    31 1
    35    16    32 1
@<TRIPOS>SUBSTRUCTURE
     1 AZB         1 TEMP              0 ****  ****    0 ROOT
