@<TRIPOS>MOLECULE
molecule
   34    34     1     0     0
SMALL
bcc


@<TRIPOS>ATOM
      1 C1           0.0000     0.0000     0.0000 c3         1 AZC       0.322500
      2 C2           1.5300     0.0000     0.0000 c3         1 AZC       0.095100
      3 O2           2.0090    -1.1670    -0.6720 oh         1 AZC      -0.591800
      4 C3           2.0290     0.0000     1.4490 c3         1 AZC       0.110100
      5 O3           3.4510     0.1490     1.4690 oh         1 AZC      -0.608800
      6 C4           1.3780     1.1700     2.1920 c3         1 AZC       0.103100
      7 O4           1.7130     1.1040     3.5790 oh         1 AZC      -0.599800
      8 C5          -0.1400     1.0830     2.0260 c3         1 AZC       0.141100
      9 O5          -0.4820     1.1770     0.6450 os         1 AZC      -0.393600
     10 C6          -0.8010     2.2300     2.7930 c3         1 AZC       0.152400
     11 O6          -2.2200     2.1470     2.6450 oh         1 AZC      -0.591800
     12 N1          -0.4870    -0.0330    -1.3800 ns         1 AZC      -0.582900
     13 C7          -1.6630    -0.6260    -1.6660 c          1 AZC       0.778100
     14 O7          -2.3190    -1.1330    -0.7790 o          1 AZC      -0.571100
     15 N2          -2.1120    -0.6560    -2.9370 ns         1 AZC      -0.595500
     16 C8          -3.2870    -1.2490    -3.2230 c          1 AZC       0.655100
     17 C9          -3.7890    -1.2840    -4.6430 c3         1 AZC      -0.172100
     18 O8          -3.9410    -1.7560    -2.3370 o          1 AZC      -0.517100
     19 H1          -0.3580    -0.8720     0.5340 h2         1 AZC       0.096700
     20 H2           1.8900     0.8880    -0.5050 h1         1 AZC       0.052700
     21 HO2          2.7230    -0.9310    -1.2410 ho         1 AZC       0.410000
     22 H3           1.7500    -0.9310     1.9260 h1         1 AZC       0.068700
     23 HO3          3.8390    -0.6010     1.8900 ho         1 AZC       0.416000
     24 H4           1.7330     2.1040     1.7740 h1         1 AZC       0.055700
     25 HO4          2.3990     1.7240     3.7670 ho         1 AZC       0.414000
     26 H5          -0.4890     0.1350     2.4170 h1         1 AZC       0.072700
     27 H61         -0.5420     2.1590     3.8430 h1         1 AZC       0.033700
     28 H62         -0.4520     3.1770     2.3990 h1         1 AZC       0.033700
     29 HO6         -2.6300     2.8190     3.1640 ho         1 AZC       0.402000
     30 HN1          0.0390     0.4090    -2.1070 hn         1 AZC       0.307500
     31 HN2         -1.5740    -0.2340    -3.6670 hn         1 AZC       0.310500
     32 H91         -3.0720    -1.8050    -5.2670 hc         1 AZC       0.063367
     33 H92         -4.7400    -1.8010    -4.6770 hc         1 AZC       0.063367
     34 H93         -3.9150    -0.2710    -5.0070 hc         1 AZC       0.063367
@<TRIPOS>BOND
     1     1     2 1
     2     1     9 1
     3     1    12 1
     4     1    19 1
     5     2     3 1
     6     2     4 1
     7     2    20 1
     8     3    21 1
     9     4     5 1
    10     4     6 1
    11     4    22 1
    12     5    23 1
    13     6     7 1
    14     6     8 1
    15     6    24 1
    16     7    25 1
    17     8     9 1
    18     8    10 1
    19     8    26 1
    20    10    11 1
    21    10    27 1
    22    10    28 1
    23    11    29 1
    24    12    13 1
    25    12    30 1
    26    13    14 2
    27    13    15 1
    28    15    16 1
    29    15    31 1
    30    16    17 1
    31    16    18 2
    32    17    32 1
    33    17    33 1
    34    17    34 1
@<TRIPOS>SUBSTRUCTURE
     1 AZC         1 TEMP              0 ****  ****    0 ROOT
