@<TRIPOS>MOLECULE
AZD
   39    40     1     0     0
SMALL
bcc


@<TRIPOS>ATOM
      1 PA          0.1980   -0.2890   -0.1620 p5        1 AZD      1.601800
      2 O1A         1.5790   -0.6700   -0.5240 o         1 AZD     -0.885000
      3 O2A        -0.6610   -1.0380    0.7830 o         1 AZD     -0.885000
      4 O3A         0.2190    1.2920    0.1950 os        1 AZD     -0.830800
      5 PB          0.3340    2.8400    0.7310 p5        1 AZD      1.592800
      6 O1B         0.9750    2.8440    2.0640 o         1 AZD     -0.888000
      7 O2B        -0.8760    3.6340    0.4460 o         1 AZD     -0.888000
      8 O3B         1.5010    3.2840   -0.3370 oh        1 AZD     -0.806400
      9 O5'        -0.7320   -0.3650   -1.5350 os        1 AZD     -0.593200
     10 C5'        -0.1130   -0.4710   -2.7710 c3        1 AZD      0.191400
     11 C4'        -0.2870   -1.8550   -3.4270 c3        1 AZD      0.069800
     12 O4'        -0.8960   -2.8130   -2.5320 os        1 AZD     -0.408600
     13 C3'        -1.1340   -1.8420   -4.6970 c2        1 AZD      0.300300
     14 N3'        -0.7300   -1.4440   -5.8420 ne        1 AZD     -0.434400
     15 N4'        -1.5200   -1.0970   -6.9810 n1        1 AZD     -0.127300
     16 N5'        -1.8970   -1.8100   -7.8290 n1        1 AZD     -0.525000
     17 C2'        -2.4760   -2.4260   -4.3020 c3        1 AZD     -0.179700
     18 C1'        -2.1760   -3.2150   -3.0130 c3        1 AZD      0.322500
     19 N1         -3.1950   -3.0970   -1.9490 n         1 AZD     -0.359000
     20 C2         -4.3560   -3.8790   -2.1100 c         1 AZD      0.788500
     21 O2         -4.5390   -4.6510   -3.0880 o         1 AZD     -0.709500
     22 N3         -5.3560   -3.8120   -1.1250 n         1 AZD     -0.600500
     23 C4         -5.2250   -3.0390    0.0460 c         1 AZD      0.716700
     24 O4         -6.1810   -3.0800    0.8550 o         1 AZD     -0.708500
     25 C5         -3.9800   -2.2960    0.1860 cc        1 AZD     -0.310400
     26 C5A        -3.7800   -1.4950    1.4100 c3        1 AZD     -0.038900
     27 C6         -3.0200   -2.3480   -0.7980 cd        1 AZD      0.106600
     28 H5'1        0.9920   -0.2720   -2.6620 h1        1 AZD      0.035200
     29 H5'2       -0.5660    0.3010   -3.4550 h1        1 AZD      0.035200
     30 H4'         0.7300   -2.2960   -3.6270 h1        1 AZD      0.051700
     31 H3'         2.0750    2.5690   -0.5770 ho        1 AZD      0.423000
     32 H2'1       -2.8860   -3.1130   -5.0810 hc        1 AZD      0.059700
     33 H2'2       -3.2100   -1.6010   -4.1330 hc        1 AZD      0.059700
     34 H1'        -2.1000   -4.3250   -3.2290 h2        1 AZD      0.052700
     35 HN3        -6.1770   -4.3480   -1.2790 hn        1 AZD      0.314500
     36 H51        -2.6970   -1.2010    1.5130 hc        1 AZD      0.055367
     37 H52        -4.4040   -0.5670    1.3710 hc        1 AZD      0.055367
     38 H53        -4.0930   -2.0830    2.3090 hc        1 AZD      0.055367
     39 H6         -2.0390   -1.7860   -0.6880 h4        1 AZD      0.289000
@<TRIPOS>BOND
     1    1    2 1   
     2    1    3 1   
     3    1    4 1   
     4    1    9 1   
     5    4    5 1   
     6    5    6 1   
     7    5    7 1   
     8    5    8 1   
     9    8   31 1   
    10    9   10 1   
    11   10   11 1   
    12   10   28 1   
    13   10   29 1   
    14   11   12 1   
    15   11   13 1   
    16   11   30 1   
    17   12   18 1   
    18   13   14 2   
    19   13   17 1   
    20   14   15 1   
    21   15   16 3   
    22   17   18 1   
    23   17   32 1   
    24   17   33 1   
    25   18   19 1   
    26   18   34 1   
    27   19   20 1   
    28   19   27 1   
    29   20   21 2   
    30   20   22 1   
    31   22   23 1   
    32   22   35 1   
    33   23   24 2   
    34   23   25 1   
    35   25   26 1   
    36   25   27 2   
    37   26   36 1   
    38   26   37 1   
    39   26   38 1   
    40   27   39 1   
@<TRIPOS>SUBSTRUCTURE
     1 AZD         1 TEMP              0 ****  ****    0 ROOT
