@<TRIPOS>MOLECULE
AZE
   50    50     1     0     0
SMALL
bcc


@<TRIPOS>ATOM
      1 C1         -0.7520    0.0240    0.5770 c3        1 AZE     -0.003800
      2 C2          0.2700    0.9540    1.2370 c3        1 AZE     -0.069400
      3 C3         -0.1010    1.2950    2.6610 c3        1 AZE     -0.076400
      4 C4         -0.1810    0.0450    3.5090 c3        1 AZE     -0.039200
      5 C5         -0.9010   -1.0710    2.8350 c2        1 AZE     -0.110400
      6 C6         -1.1650   -1.0870    1.5130 ce        1 AZE     -0.075200
      7 C7         -1.7990   -2.2360    0.8660 ce        1 AZE     -0.112000
      8 C8         -3.0980   -2.4550    0.6310 cf        1 AZE     -0.130000
      9 C9         -4.2360   -1.6190    0.9860 cf        1 AZE     -0.073200
     10 C10        -4.3650   -1.0650    2.2100 ce        1 AZE     -0.131000
     11 C11        -5.4930   -0.2680    2.6330 ce        1 AZE     -0.129000
     12 C12        -5.5810    0.2610    3.8670 cf        1 AZE     -0.121000
     13 C13        -6.6910    1.0700    4.3480 cf        1 AZE     -0.089200
     14 C14        -6.6710    1.5510    5.6080 c2        1 AZE     -0.158200
     15 C15        -7.7290    2.3800    6.2150 c3        1 AZE     -0.063900
     16 C16        -0.1100   -0.5730   -0.6730 c3        1 AZE     -0.085100
     17 C17        -1.9800    0.8270    0.1590 c3        1 AZE     -0.085100
     18 C18        -1.2700   -2.1840    3.7450 c3        1 AZE     -0.061900
     19 C19        -5.2620   -1.4590   -0.0770 c3        1 AZE     -0.059900
     20 C20        -7.8090    1.3270    3.4070 c3        1 AZE     -0.059900
     21 H21         0.3510    1.8930    0.6300 hc        1 AZE      0.041700
     22 H22         1.2760    0.4570    1.2280 hc        1 AZE      0.041700
     23 H31        -1.0870    1.8290    2.6800 hc        1 AZE      0.042200
     24 H32         0.6640    1.9920    3.0930 hc        1 AZE      0.042200
     25 H41        -0.6910    0.2850    4.4810 hc        1 AZE      0.046200
     26 H42         0.8570   -0.3080    3.7590 hc        1 AZE      0.046200
     27 H7         -1.0630   -2.9870    0.5160 ha        1 AZE      0.124000
     28 H8         -3.3850   -3.3750    0.0840 ha        1 AZE      0.122000
     29 H10        -3.5620   -1.2170    2.9570 ha        1 AZE      0.134000
     30 H11        -6.2930   -0.1100    1.8890 ha        1 AZE      0.124000
     31 H12        -4.7680    0.0910    4.5970 ha        1 AZE      0.121000
     32 H14        -5.8130    1.3280    6.2640 ha        1 AZE      0.119000
     33 H151       -7.4680    2.6470    7.2680 hc        1 AZE      0.042367
     34 H152       -7.8710    3.3290    5.6390 hc        1 AZE      0.042367
     35 H153       -8.7060    1.8330    6.2260 hc        1 AZE      0.042367
     36 H161       -0.8630   -1.1540   -1.2580 hc        1 AZE      0.037200
     37 H162        0.7290   -1.2540   -0.3940 hc        1 AZE      0.037200
     38 H163        0.2910    0.2440   -1.3200 hc        1 AZE      0.037200
     39 H171       -2.4000    1.3830    1.0300 hc        1 AZE      0.037200
     40 H172       -1.7030    1.5600   -0.6360 hc        1 AZE      0.037200
     41 H173       -2.7700    0.1430   -0.2380 hc        1 AZE      0.037200
     42 H181       -1.7650   -3.0240    3.1980 hc        1 AZE      0.042367
     43 H182       -0.3530   -2.5820    4.2490 hc        1 AZE      0.042367
     44 H183       -1.9700   -1.8180    4.5370 hc        1 AZE      0.042367
     45 H191       -6.2520   -1.8470    0.2700 hc        1 AZE      0.042367
     46 H192       -4.9770   -2.0110   -1.0060 hc        1 AZE      0.042367
     47 H193       -5.3800   -0.3770   -0.3360 hc        1 AZE      0.042367
     48 H201       -8.6070    1.9540    3.8750 hc        1 AZE      0.042367
     49 H202       -7.4320    1.8600    2.4990 hc        1 AZE      0.042367
     50 H203       -8.2680    0.3600    3.0820 hc        1 AZE      0.042367
@<TRIPOS>BOND
     1    1    2 1   
     2    1    6 1   
     3    1   16 1   
     4    1   17 1   
     5    2    3 1   
     6    2   21 1   
     7    2   22 1   
     8    3    4 1   
     9    3   23 1   
    10    3   24 1   
    11    4    5 1   
    12    4   25 1   
    13    4   26 1   
    14    5    6 2   
    15    5   18 1   
    16    6    7 1   
    17    7    8 2   
    18    7   27 1   
    19    8    9 1   
    20    8   28 1   
    21    9   10 2   
    22    9   19 1   
    23   10   11 1   
    24   10   29 1   
    25   11   12 2   
    26   11   30 1   
    27   12   13 1   
    28   12   31 1   
    29   13   14 2   
    30   13   20 1   
    31   14   15 1   
    32   14   32 1   
    33   15   33 1   
    34   15   34 1   
    35   15   35 1   
    36   16   36 1   
    37   16   37 1   
    38   16   38 1   
    39   17   39 1   
    40   17   40 1   
    41   17   41 1   
    42   18   42 1   
    43   18   43 1   
    44   18   44 1   
    45   19   45 1   
    46   19   46 1   
    47   19   47 1   
    48   20   48 1   
    49   20   49 1   
    50   20   50 1   
@<TRIPOS>SUBSTRUCTURE
     1 AZE         1 TEMP              0 ****  ****    0 ROOT
