@<TRIPOS>MOLECULE
molecule
   50    50     1     0     0
SMALL
bcc


@<TRIPOS>ATOM
      1 C1           0.0000     0.0000     0.0000 c3         1 AZE      -0.011800
      2 C2           1.5120     0.0000     0.0000 c3         1 AZE      -0.066400
      3 C3           2.1500     0.0000     1.2700 c3         1 AZE      -0.074400
      4 C4           1.7300    -0.8400     2.3140 c3         1 AZE      -0.028200
      5 C5           0.2160    -0.9900     2.3670 c2         1 AZE      -0.125400
      6 C6          -0.6530    -0.5440     1.3150 ce         1 AZE      -0.082200
      7 C7          -2.1700    -0.7250     1.3220 ce         1 AZE      -0.117000
      8 C8          -3.0150    -0.3390     2.2740 cf         1 AZE      -0.134000
      9 C9          -4.3680    -0.4360     2.1730 cf         1 AZE      -0.107200
     10 C10         -5.0760     0.2430     3.4520 ce         1 AZE      -0.143000
     11 C11         -6.5340     0.2280     3.3930 ce         1 AZE      -0.153000
     12 C12         -6.9370     0.7440     4.5760 cf         1 AZE      -0.157000
     13 C13         -8.3900     0.8900     4.7410 cf         1 AZE      -0.130200
     14 C14         -8.6400     1.2550     6.0800 c2         1 AZE      -0.148200
     15 C15        -10.0680     1.4030     6.2820 c3         1 AZE      -0.068900
     16 C16         -0.5370    -0.8540    -1.4060 c3         1 AZE      -0.075600
     17 C17         -0.3310     1.3940     0.0300 c3         1 AZE      -0.075600
     18 C18         -0.2170    -1.5730     3.7810 c3         1 AZE      -0.044900
     19 C19         -4.9330    -0.7150     0.9510 c3         1 AZE      -0.043900
     20 C20         -9.1210     0.4000     3.5250 c3         1 AZE      -0.025900
     21 H21          1.8450    -0.8790    -0.5390 hc         1 AZE       0.039700
     22 H22          1.8450     0.8780    -0.5390 hc         1 AZE       0.039700
     23 H31          2.0940     1.0140     1.6460 hc         1 AZE       0.032200
     24 H32          3.1950    -0.2240     1.0920 hc         1 AZE       0.032200
     25 H41          2.0730    -0.4250     3.2540 hc         1 AZE       0.047200
     26 H42          2.1730    -1.8180     2.1740 hc         1 AZE       0.047200
     27 H7          -2.5990    -1.1450     0.4200 ha         1 AZE       0.120000
     28 H8          -2.6120     0.1570     3.1480 ha         1 AZE       0.118000
     29 H10         -4.5110     0.7030     4.2540 ha         1 AZE       0.153000
     30 H11         -7.1800    -0.0710     2.5760 ha         1 AZE       0.163000
     31 H12         -6.2280     1.0670     5.3290 ha         1 AZE       0.135000
     32 H14         -7.8680     1.3940     6.8270 ha         1 AZE       0.153000
     33 H151       -10.4600     2.1220     5.5720 hc         1 AZE       0.041033
     34 H152       -10.5550     0.4470     6.1330 hc         1 AZE       0.041033
     35 H153       -10.2560     1.7520     7.2900 hc         1 AZE       0.041033
     36 H161        -0.5650    -1.9160    -1.1950 hc         1 AZE       0.035200
     37 H162         0.1470    -0.6670    -2.2250 hc         1 AZE       0.035200
     38 H163        -1.5280    -0.5130    -1.6790 hc         1 AZE       0.035200
     39 H171        -1.3990     1.5150    -0.1030 hc         1 AZE       0.035200
     40 H172         0.1920     1.9070    -0.7680 hc         1 AZE       0.035200
     41 H173        -0.0360     1.8150     0.9840 hc         1 AZE       0.035200
     42 H181        -1.0690    -2.2310     3.6550 hc         1 AZE       0.039700
     43 H182         0.6080    -2.1290     4.2100 hc         1 AZE       0.039700
     44 H183        -0.4850    -0.7580     4.4410 hc         1 AZE       0.039700
     45 H191        -4.7780     0.1230     0.2820 hc         1 AZE       0.047033
     46 H192        -4.4710    -1.6010     0.5330 hc         1 AZE       0.047033
     47 H193        -5.9950    -0.8860     1.0750 hc         1 AZE       0.047033
     48 H201        -8.8230     0.9860     2.6640 hc         1 AZE       0.045367
     49 H202       -10.1880     0.5010     3.6790 hc         1 AZE       0.045367
     50 H203        -8.8780    -0.6420     3.3530 hc         1 AZE       0.045367
@<TRIPOS>BOND
     1     1     2 1
     2     1     6 1
     3     1    16 1
     4     1    17 1
     5     2     3 1
     6     2    21 1
     7     2    22 1
     8     3     4 1
     9     3    23 1
    10     3    24 1
    11     4     5 1
    12     4    25 1
    13     4    26 1
    14     5     6 2
    15     5    18 1
    16     6     7 1
    17     7     8 2
    18     7    27 1
    19     8     9 1
    20     8    28 1
    21     9    10 2
    22     9    19 1
    23    10    11 1
    24    10    29 1
    25    11    12 2
    26    11    30 1
    27    12    13 1
    28    12    31 1
    29    13    14 2
    30    13    20 1
    31    14    15 1
    32    14    32 1
    33    15    33 1
    34    15    34 1
    35    15    35 1
    36    16    36 1
    37    16    37 1
    38    16    38 1
    39    17    39 1
    40    17    40 1
    41    17    41 1
    42    18    42 1
    43    18    43 1
    44    18    44 1
    45    19    45 1
    46    19    46 1
    47    19    47 1
    48    20    48 1
    49    20    49 1
    50    20    50 1
@<TRIPOS>SUBSTRUCTURE
     1 AZE         1 TEMP              0 ****  ****    0 ROOT
