@<TRIPOS>MOLECULE
AZF
   22    22     1     0     0
SMALL
bcc


@<TRIPOS>ATOM
      1 O4           0.0000     0.0000     0.0000 oh         1 AZF      -0.578800
      2 C4           1.4280     0.0000     0.0000 c3         1 AZF       0.156100
      3 C3           1.8940     0.0000     1.4580 c3         1 AZF       0.169100
      4 O3           1.6190     1.2780     2.0280 oh         1 AZF      -0.589800
      5 C2           3.3940    -0.2800     1.5400 c3         1 AZF       0.086800
      6 N            3.7420    -1.5100     0.8300 n7         1 AZF      -0.410000
      7 C5           1.9590    -1.2470    -0.7320 c3         1 AZF       0.105500
      8 C6           1.6510    -1.1940    -2.2310 c3         1 AZF       0.233400
      9 O6           2.1760    -2.3600    -2.8350 oh         1 AZF      -0.569800
     10 N2           3.4160    -1.3640    -0.5670 n7         1 AZF      -0.400000
     11 H4          -0.3140     0.8520    -0.2540 ho         1 AZF       0.395000
     12 HA           1.7940     0.8910    -0.4950 h1         1 AZF       0.009700
     13 H3           1.3570    -0.7650     2.0050 h1         1 AZF       0.028700
     14 H5           1.4900    -2.1250    -0.3060 h1         1 AZF       0.068700
     15 HB           1.2470     1.1660     2.8860 ho         1 AZF       0.397000
     16 H2C1         3.9330     0.5480     1.0970 h1         1 AZF       0.016700
     17 H2C2         3.6780    -0.3800     2.5810 h1         1 AZF       0.016700
     18 H            4.7230    -1.6850     0.9270 hn         1 AZF       0.273800
     19 H2           3.8610    -0.5430    -0.9290 hn         1 AZF       0.236800
     20 H6C1         0.5790    -1.1560    -2.3820 h1         1 AZF      -0.013800
     21 H6C2         2.1130    -0.3170    -2.6680 h1         1 AZF      -0.013800
     22 H6           1.8660    -2.4200    -3.7240 ho         1 AZF       0.383000
@<TRIPOS>BOND
     1     1     2 1   
     2     1    11 1   
     3     2     3 1   
     4     2     7 1   
     5     2    12 1   
     6     3     4 1   
     7     3     5 1   
     8     3    13 1   
     9     4    15 1   
    10     5     6 1   
    11     5    16 1   
    12     5    17 1   
    13     6    10 1   
    14     6    18 1   
    15     7     8 1   
    16     7    10 1   
    17     7    14 1   
    18     8     9 1   
    19     8    20 1   
    20     8    21 1   
    21     9    22 1   
    22    10    19 1   
@<TRIPOS>SUBSTRUCTURE
     1 AZF         1 TEMP              0 ****  ****    0 ROOT
