@<TRIPOS>MOLECULE
AZG
   15    16     1     0     0
SMALL
bcc


@<TRIPOS>ATOM
      1 C4           0.0000     0.0000     0.0000 ca         1 AZG       0.521300
      2 N3           1.3340     0.0000     0.0000 nb         1 AZG      -0.577000
      3 C2           2.0020     0.0000     1.1400 ca         1 AZG       0.735900
      4 N2           3.3870    -0.0070     1.1030 nv         1 AZG      -0.633500
      5 N1           1.3930     0.0080     2.3200 nb         1 AZG      -0.692000
      6 C6           0.0700     0.0140     2.4090 ca         1 AZG       0.698600
      7 O6          -0.5420     0.0230     3.6180 oh         1 AZG      -0.609300
      8 C5          -0.6790     0.0100     1.2310 ca         1 AZG      -0.596800
      9 N7          -2.0130     0.0140     0.9110 na         1 AZG       0.574900
     10 N8          -2.1140     0.0070    -0.3740 nc         1 AZG      -0.312400
     11 N9          -0.9590    -0.0010    -0.9410 nd         1 AZG      -0.262000
     12 HN21         3.8920     0.8570     1.0840 hn         1 AZG       0.282300
     13 HN22         3.8830    -0.8760     1.0910 hn         1 AZG       0.282300
     14 HO6         -0.0920    -0.5640     4.2020 ho         1 AZG       0.429000
     15 HN7         -2.7740     0.0200     1.5610 hn         1 AZG       0.159700
@<TRIPOS>BOND
     1     1     2 ar  
     2     1     8 ar  
     3     1    11 1   
     4     2     3 ar  
     5     3     4 1   
     6     3     5 ar  
     7     4    12 1   
     8     4    13 1   
     9     5     6 ar  
    10     6     7 1   
    11     6     8 ar  
    12     7    14 1   
    13     8     9 1   
    14     9    10 1   
    15     9    15 1   
    16    10    11 2   
@<TRIPOS>SUBSTRUCTURE
     1 AZG         1 TEMP              0 ****  ****    0 ROOT
