@<TRIPOS>MOLECULE
AZI
    3     2     1     0     0
SMALL
bcc


@<TRIPOS>ATOM
      1 N1         -1.1710    0.0010    0.0010 n1        1 AZI     -0.623000
      2 N2          0.0000   -0.0000    0.0000 n2        1 AZI      0.246000
      3 N3          1.1710   -0.0010   -0.0010 n1        1 AZI     -0.623000
@<TRIPOS>BOND
     1    1    2 1   
     2    2    3 1   
@<TRIPOS>SUBSTRUCTURE
     1 AZI         1 TEMP              0 ****  ****    0 ROOT
