@<TRIPOS>MOLECULE
AZJ
   59    61     1     0     0
SMALL
bcc


@<TRIPOS>ATOM
      1 CAA          0.0000     0.0000     0.0000 c3         1 AZJ      -0.003100
      2 NAC          2.1880    -0.3600     7.3820 n1         1 AZJ      -0.358800
      3 OAD          8.1690    -0.2980    10.6720 o          1 AZJ      -0.607100
      4 OAE          4.0900    -0.0010     0.5810 o          1 AZJ      -0.585000
      5 OAF          8.2940     1.3940    12.7690 o          1 AZJ      -0.562300
      6 OAG          9.9370     3.1390    12.1560 o          1 AZJ      -0.562300
      7 CAH          2.8470    -0.2620     6.4620 cg         1 AZJ       0.235800
      8 CAI         12.2270     0.5460    16.0920 ca         1 AZJ      -0.092000
      9 CAJ         11.1000    -0.1910    15.7760 ca         1 AZJ      -0.097500
     10 CAK         12.8540     1.3000    15.1180 ca         1 AZJ      -0.097500
     11 CAL         10.6010    -0.1730    14.4880 ca         1 AZJ      -0.081500
     12 CAM         12.3590     1.3120    13.8280 ca         1 AZJ      -0.081500
     13 CAN          3.0760    -0.1320     4.0220 ca         1 AZJ       0.012000
     14 CAO          1.5300     0.0000     0.0000 c3         1 AZJ       0.229400
     15 CAP          6.8110     1.7250     8.2980 c3         1 AZJ      -0.014400
     16 CAQ          7.2320    -0.7340     8.2280 c3         1 AZJ      -0.014400
     17 CAR          6.2980     1.6420     6.8580 c3         1 AZJ       0.162300
     18 CAS          6.7060    -0.7450     6.7900 c3         1 AZJ       0.162300
     19 CAT         10.7630     0.6030    12.1390 c3         1 AZJ       0.059700
     20 NAU          5.8090     0.1250     4.3130 nb         1 AZJ      -0.624000
     21 NAV          8.9110     1.7790    10.4470 ns         1 AZJ      -0.319300
     22 OAW          2.0140     0.0000     1.3690 os         1 AZJ      -0.414900
     23 CAX          8.3230     0.6700     9.9580 c          1 AZJ       0.650100
     24 CAY          3.3500    -0.0010     1.5450 c          1 AZJ       0.728700
     25 CAZ          5.2930     0.1330     3.1030 ca         1 AZJ       0.472600
     26 CBA         11.2290     0.5810    13.5140 ca         1 AZJ      -0.102300
     27 CBB          3.6580    -0.1310     5.2900 ca         1 AZJ      -0.077300
     28 CBC          3.9140     0.0000     2.9080 ca         1 AZJ      -0.276900
     29 CBD          5.0560     0.0020     5.3970 ca         1 AZJ       0.551200
     30 CBE          7.8580     0.6310     8.5260 c3         1 AZJ      -0.130700
     31 NBF          5.7080     0.3180     6.6230 nh         1 AZJ      -0.532300
     32 SBG          9.4240     1.8210    12.0210 s6         1 AZJ       0.954600
     33 H1          -0.3610     0.8750     0.5270 hc         1 AZJ       0.012033
     34 H2          -0.3610     0.0190    -1.0210 hc         1 AZJ       0.012033
     35 H3          -0.3610    -0.8940     0.4950 hc         1 AZJ       0.012033
     36 H4           6.1280    -0.6110     1.2920 hc         1 AZJ       0.032367
     37 H5           7.2230     0.3990     2.2460 hc         1 AZJ       0.032367
     38 H6           5.9030     1.1430     1.3320 hc         1 AZJ       0.032367
     39 H7          12.6170     0.5340    17.1020 ha         1 AZJ       0.103000
     40 H8          10.6080    -0.7820    16.5390 ha         1 AZJ       0.105000
     41 H9          13.7380     1.8750    15.3640 ha         1 AZJ       0.105000
     42 H10          9.7170    -0.7480    14.2410 ha         1 AZJ       0.116000
     43 H11         12.8510     1.9040    13.0650 ha         1 AZJ       0.116000
     44 H12          2.0550    -0.4700     3.8940 ha         1 AZJ       0.133000
     45 H13          1.8920    -0.8850    -0.5110 h1         1 AZJ       0.010700
     46 H14          1.8920     0.8850    -0.5110 h1         1 AZJ       0.010700
     47 H15          7.2620     2.6960     8.4640 hc         1 AZJ       0.033700
     48 H16          5.9840     1.5820     8.9830 hc         1 AZJ       0.033700
     49 H17          7.9810    -1.5070     8.3440 hc         1 AZJ       0.033700
     50 H18          6.4110    -0.9110     8.9130 hc         1 AZJ       0.033700
     51 H19          7.1230     1.7950     6.1730 h1         1 AZJ       0.017950
     52 H20          5.5450     2.4050     6.7000 h1         1 AZJ       0.017950
     53 H21          7.5290    -0.5770     6.1050 h1         1 AZJ       0.017950
     54 H22          6.2480    -1.7040     6.5820 h1         1 AZJ       0.017950
     55 H23         11.6030     0.7730    11.4760 h1         1 AZJ       0.081200
     56 H24         10.3010    -0.3470    11.8990 h1         1 AZJ       0.081200
     57 H25          9.0590     2.5700     9.8520 hn         1 AZJ       0.237500
     58 H26          8.6990     0.7940     7.8630 hc         1 AZJ       0.038700
     59 CAB          6.2000     0.2760     1.9100 c3         1 AZJ      -0.060400
@<TRIPOS>BOND
     1     1    14 1   
     2     1    33 1   
     3     1    34 1   
     4     1    35 1   
     5     2     7 3   
     6     3    23 2   
     7     4    24 2   
     8     5    32 2   
     9     6    32 2   
    10     7    27 1   
    11     8     9 ar  
    12     8    10 ar  
    13     8    39 1   
    14     9    11 ar  
    15     9    40 1   
    16    10    12 ar  
    17    10    41 1   
    18    11    26 ar  
    19    11    42 1   
    20    12    26 ar  
    21    12    43 1   
    22    13    27 ar  
    23    13    28 ar  
    24    13    44 1   
    25    14    22 1   
    26    14    45 1   
    27    14    46 1   
    28    15    17 1   
    29    15    30 1   
    30    15    47 1   
    31    15    48 1   
    32    16    18 1   
    33    16    30 1   
    34    16    49 1   
    35    16    50 1   
    36    17    31 1   
    37    17    51 1   
    38    17    52 1   
    39    18    31 1   
    40    18    53 1   
    41    18    54 1   
    42    19    26 1   
    43    19    32 1   
    44    19    55 1   
    45    19    56 1   
    46    20    25 ar  
    47    20    29 ar  
    48    21    23 1   
    49    21    32 1   
    50    21    57 1   
    51    22    24 1   
    52    23    30 1   
    53    24    28 1   
    54    25    28 ar  
    55    25    59 1   
    56    27    29 ar  
    57    29    31 1   
    58    30    58 1   
    59    36    59 1   
    60    37    59 1   
    61    38    59 1   
@<TRIPOS>SUBSTRUCTURE
     1 AZJ         1 TEMP              0 ****  ****    0 ROOT
