@<TRIPOS>MOLECULE
molecule
   59    61     1     0     0
SMALL
bcc


@<TRIPOS>ATOM
      1 CAA          0.0000     0.0000     0.0000 c3         1 AZJ      -0.097100
      2 NAC          2.1880    -0.3600     7.3820 n1         1 AZJ      -0.345800
      3 OAD          8.1690    -0.2980    10.6720 o          1 AZJ      -0.570100
      4 OAE          4.0900    -0.0010     0.5810 o          1 AZJ      -0.549000
      5 OAF          8.2940     1.3940    12.7690 o          1 AZJ      -0.605300
      6 OAG          9.9370     3.1390    12.1560 o          1 AZJ      -0.605300
      7 CAH          2.8470    -0.2620     6.4620 cg         1 AZJ       0.250800
      8 CAI         12.2270     0.5460    16.0920 ca         1 AZJ      -0.114000
      9 CAJ         11.1000    -0.1910    15.7760 ca         1 AZJ      -0.126500
     10 CAK         12.8540     1.3000    15.1180 ca         1 AZJ      -0.126500
     11 CAL         10.6010    -0.1730    14.4880 ca         1 AZJ      -0.104500
     12 CAM         12.3590     1.3120    13.8280 ca         1 AZJ      -0.104500
     13 CAN          3.0760    -0.1320     4.0220 ca         1 AZJ      -0.004000
     14 CAO          1.5300     0.0000     0.0000 c3         1 AZJ       0.148400
     15 CAP          6.8110     1.7250     8.2980 c3         1 AZJ      -0.068400
     16 CAQ          7.2320    -0.7340     8.2280 c3         1 AZJ      -0.068400
     17 CAR          6.2980     1.6420     6.8580 c3         1 AZJ       0.181300
     18 CAS          6.7060    -0.7450     6.7900 c3         1 AZJ       0.181300
     19 CAT         10.7630     0.6030    12.1390 c3         1 AZJ      -0.157300
     20 NAU          5.8090     0.1250     4.3130 nb         1 AZJ      -0.742000
     21 NAV          8.9110     1.7790    10.4470 ns         1 AZJ      -0.655300
     22 OAW          2.0140     0.0000     1.3690 os         1 AZJ      -0.428900
     23 CAX          8.3230     0.6700     9.9580 c          1 AZJ       0.682100
     24 CAY          3.3500    -0.0010     1.5450 c          1 AZJ       0.656700
     25 CAZ          5.2930     0.1330     3.1030 ca         1 AZJ       0.517600
     26 CBA         11.2290     0.5810    13.5140 ca         1 AZJ      -0.106300
     27 CBB          3.6580    -0.1310     5.2900 ca         1 AZJ      -0.131300
     28 CBC          3.9140     0.0000     2.9080 ca         1 AZJ      -0.271900
     29 CBD          5.0560     0.0020     5.3970 ca         1 AZJ       0.679200
     30 CBE          7.8580     0.6310     8.5260 c3         1 AZJ      -0.150700
     31 NBF          5.7080     0.3180     6.6230 nh         1 AZJ      -0.745300
     32 SBG          9.4240     1.8210    12.0210 s6         1 AZJ       1.313600
     33 H1          -0.3610     0.8750     0.5270 hc         1 AZJ       0.049700
     34 H2          -0.3610     0.0190    -1.0210 hc         1 AZJ       0.049700
     35 H3          -0.3610    -0.8940     0.4950 hc         1 AZJ       0.049700
     36 H4           6.1280    -0.6110     1.2920 hc         1 AZJ       0.068367
     37 H5           7.2230     0.3990     2.2460 hc         1 AZJ       0.068367
     38 H6           5.9030     1.1430     1.3320 hc         1 AZJ       0.068367
     39 H7          12.6170     0.5340    17.1020 ha         1 AZJ       0.132000
     40 H8          10.6080    -0.7820    16.5390 ha         1 AZJ       0.135500
     41 H9          13.7380     1.8750    15.3640 ha         1 AZJ       0.135500
     42 H10          9.7170    -0.7480    14.2410 ha         1 AZJ       0.142000
     43 H11         12.8510     1.9040    13.0650 ha         1 AZJ       0.142000
     44 H12          2.0550    -0.4700     3.8940 ha         1 AZJ       0.171000
     45 H13          1.8920    -0.8850    -0.5110 h1         1 AZJ       0.051200
     46 H14          1.8920     0.8850    -0.5110 h1         1 AZJ       0.051200
     47 H15          7.2620     2.6960     8.4640 hc         1 AZJ       0.065700
     48 H16          5.9840     1.5820     8.9830 hc         1 AZJ       0.065700
     49 H17          7.9810    -1.5070     8.3440 hc         1 AZJ       0.065700
     50 H18          6.4110    -0.9110     8.9130 hc         1 AZJ       0.065700
     51 H19          7.1230     1.7950     6.1730 h1         1 AZJ       0.048950
     52 H20          5.5450     2.4050     6.7000 h1         1 AZJ       0.048950
     53 H21          7.5290    -0.5770     6.1050 h1         1 AZJ       0.048950
     54 H22          6.2480    -1.7040     6.5820 h1         1 AZJ       0.048950
     55 H23         11.6030     0.7730    11.4760 h1         1 AZJ       0.112700
     56 H24         10.3010    -0.3470    11.8990 h1         1 AZJ       0.112700
     57 H25          9.0590     2.5700     9.8520 hn         1 AZJ       0.347500
     58 H26          8.6990     0.7940     7.8630 hc         1 AZJ       0.068700
     59 CAB          6.2000     0.2760     1.9100 c3         1 AZJ      -0.145400
@<TRIPOS>BOND
     1     9     8 ar
     2     9    11 ar
     3     8    10 ar
     4    11    26 ar
     5    10    12 ar
     6    26    12 ar
     7    26    19 1
     8    19    32 1
     9     5    32 2
    10    32     6 2
    11    32    21 1
    12    21    23 1
    13    23     3 2
    14    23    30 1
    15    30    16 1
    16    30    15 1
    17    16    18 1
    18    18    31 1
    19    15    17 1
    20    17    31 1
    21    31    29 1
    22     2     7 3
    23     7    27 1
    24    29    27 ar
    25    29    20 ar
    26    27    13 ar
    27    20    25 ar
    28    13    28 ar
    29    25    28 ar
    30    25    59 1
    31    28    24 1
    32    24    22 1
    33    24     4 2
    34    14    22 1
    35    14     1 1
    36     1    33 1
    37     1    34 1
    38     1    35 1
    39    59    36 1
    40    59    37 1
    41    59    38 1
    42     8    39 1
    43     9    40 1
    44    10    41 1
    45    11    42 1
    46    12    43 1
    47    13    44 1
    48    14    45 1
    49    14    46 1
    50    15    47 1
    51    15    48 1
    52    16    49 1
    53    16    50 1
    54    17    51 1
    55    17    52 1
    56    18    53 1
    57    18    54 1
    58    19    55 1
    59    19    56 1
    60    21    57 1
    61    30    58 1
@<TRIPOS>SUBSTRUCTURE
     1 AZJ         1 TEMP              0 ****  ****    0 ROOT
