@<TRIPOS>MOLECULE
molecule
   20    20     1     0     0
SMALL
bcc


@<TRIPOS>ATOM
      1 C1           0.0000     0.0000     0.0000 cc         1 AZM       0.061300
      2 C2           1.3520    -0.0100     2.2570 cc         1 AZM       0.633300
      3 C3           3.2320    -0.0170     3.7030 c          1 AZM       0.642100
      4 C4           3.8210    -0.0230     5.0900 c3         1 AZM      -0.162100
      5 N1          -0.2370     0.0130    -2.7450 nz         1 AZM      -0.805500
      6 N2           1.9620     0.0000     1.0850 nd         1 AZM      -0.363000
      7 N3           1.3180     0.0000     0.0000 nd         1 AZM      -0.222000
      8 N4           1.8950    -0.0160     3.5380 ns         1 AZM      -0.499400
      9 O1          -1.7810    -1.2560    -1.3160 o          1 AZM      -0.506300
     10 O2          -1.7820     1.2680    -1.3050 o          1 AZM      -0.506300
     11 O3           3.9630    -0.0140     2.7350 o          1 AZM      -0.495100
     12 S1          -1.1310     0.0060    -1.3510 sy         1 AZM       1.246800
     13 S2          -0.3140    -0.0080     1.7590 ss         1 AZM      -0.130800
     14 H41          4.9020    -0.0150     5.0230 hc         1 AZM       0.081367
     15 H42          3.4850     0.8550     5.6290 hc         1 AZM       0.081367
     16 H43          3.4980    -0.9140     5.6150 hc         1 AZM       0.081367
     17 HN11        -0.8520     0.0160    -3.5350 hn         1 AZM       0.500800
     18 HN12         0.3400    -0.8040    -2.7750 hn         1 AZM       0.500800
     19 HN4          1.2920    -0.0340     4.3370 hn         1 AZM       0.360500
     20 H13          0.3400     0.8300    -2.7670 hn         1 AZM       0.500800
@<TRIPOS>BOND
     1     1     7 2
     2     1    12 1
     3     1    13 1
     4     2     6 2
     5     2     8 1
     6     2    13 1
     7     3     4 1
     8     3     8 1
     9     3    11 2
    10     4    14 1
    11     4    15 1
    12     4    16 1
    13     5    12 1
    14     5    17 1
    15     5    18 1
    16     6     7 1
    17     8    19 1
    18     9    12 2
    19    10    12 2
    20    20     5 1
@<TRIPOS>SUBSTRUCTURE
     1 AZM         1 TEMP              0 ****  ****    0 ROOT
