@<TRIPOS>MOLECULE
AZN
   29    31     1     0     0
SMALL
bcc


@<TRIPOS>ATOM
      1 C2         -0.0820    0.0090    0.0750 ca        1 AZN     -0.138600
      2 C3          0.0010    0.3210    2.5650 ca        1 AZN     -0.120600
      3 C4          1.3340    0.0050    0.0300 ca        1 AZN     -0.186600
      4 C5         -0.7830    0.0120   -1.1330 ca        1 AZN      0.118100
      5 C8          2.1290    0.0320    1.2650 c         1 AZN      0.593300
      6 C9          1.9930   -0.0150   -1.1960 ca        1 AZN      0.013000
      7 C10        -0.0820    0.0070   -2.3820 ca        1 AZN      0.185100
      8 C11         2.1280    0.6320    3.6810 ca        1 AZN     -0.096000
      9 C12         0.0710    0.9190    4.9130 ca        1 AZN     -0.132000
     10 C14         1.4650    0.9280    4.8700 ca        1 AZN     -0.132000
     11 C13         1.3060   -0.0070   -2.4190 ca        1 AZN     -0.297500
     12 C1         -0.8010   -0.0030    1.3580 c         1 AZN      0.591300
     13 C6          1.4010    0.3320    2.5230 ca        1 AZN     -0.119600
     14 C7         -0.6590    0.6120    3.7660 ca        1 AZN     -0.099000
     15 O6          3.0020    1.2310   -3.8550 o         1 AZN     -0.736533
     16 O4          3.1690   -1.1230   -3.7510 o         1 AZN     -0.736533
     17 O3         -0.9170    0.0170   -3.4660 oh        1 AZN     -0.557100
     18 O1         -2.1550    0.0380   -1.0900 oh        1 AZN     -0.482100
     19 O5          1.3820   -0.1130   -4.9380 o         1 AZN     -0.736533
     20 O          -2.0080   -0.2640    1.4630 o         1 AZN     -0.523100
     21 O2          3.3550   -0.1630    1.2810 o         1 AZN     -0.543100
     22 S1          2.3350   -0.0030   -3.8900 s6        1 AZN      1.473100
     23 H9          3.0990   -0.0390   -1.2120 ha        1 AZN      0.169000
     24 H11         3.2290    0.6290    3.6350 ha        1 AZN      0.155000
     25 H12        -0.4540    1.1510    5.8510 ha        1 AZN      0.126000
     26 H14         2.0430    1.1680    5.7750 ha        1 AZN      0.127000
     27 H7         -1.7600    0.5920    3.7880 ha        1 AZN      0.152000
     28 H3         -0.3980   -0.0310   -4.2960 ho        1 AZN      0.501000
     29 H1         -2.4850   -0.0060   -2.0020 ho        1 AZN      0.433000
@<TRIPOS>BOND
     1    1    3 ar  
     2    1    4 ar  
     3    1   12 1   
     4    2   12 1   
     5    2   13 ar  
     6    2   14 ar  
     7    3    5 1   
     8    3    6 ar  
     9    4    7 ar  
    10    4   18 1   
    11    5   13 1   
    12    5   21 2   
    13    6   11 ar  
    14    6   23 1   
    15    7   11 ar  
    16    7   17 1   
    17    8   10 ar  
    18    8   13 ar  
    19    8   24 1   
    20    9   10 ar  
    21    9   14 ar  
    22    9   25 1   
    23   10   26 1   
    24   11   22 1   
    25   12   20 2   
    26   14   27 1   
    27   15   22 1   
    28   16   22 1   
    29   17   28 1   
    30   18   29 1   
    31   19   22 1   
@<TRIPOS>SUBSTRUCTURE
     1 AZN         1 TEMP              0 ****  ****    0 ROOT
