@<TRIPOS>MOLECULE
molecule
   29    31     1     0     0
SMALL
bcc


@<TRIPOS>ATOM
      1 C2           0.0000     0.0000     0.0000 ca         1 AZN      -0.129600
      2 C3          -0.0010     0.2890     2.5310 ca         1 AZN      -0.125600
      3 C4           1.4100     0.0000     0.0000 ca         1 AZN      -0.183600
      4 C5          -0.6910    -0.0030    -1.2100 ca         1 AZN       0.065100
      5 C8           2.1400     0.0000     1.2830 c          1 AZN       0.590300
      6 C9           2.1020     0.0080    -1.2060 ca         1 AZN       0.026000
      7 C10          0.0240     0.0030    -2.4140 ca         1 AZN       0.186100
      8 C11          2.0930     0.5860     3.7060 ca         1 AZN      -0.089000
      9 C12          0.0050     0.8530     4.8640 ca         1 AZN      -0.130000
     10 C14          1.3890     0.8630     4.8650 ca         1 AZN      -0.128000
     11 C13          1.4080     0.0090    -2.4030 ca         1 AZN      -0.249500
     12 C1          -0.7310    -0.0150     1.2810 c          1 AZN       0.583300
     13 C6           1.4050     0.2980     2.5310 ca         1 AZN      -0.122600
     14 C7          -0.6930     0.5680     3.7050 ca         1 AZN      -0.091000
     15 O6           2.5160     1.4710    -4.3150 o          1 AZN      -0.695533
     16 O4           3.5810    -0.5030    -3.6280 o          1 AZN      -0.695533
     17 O3          -0.6420     0.0040    -3.5960 oh         1 AZN      -0.474100
     18 O1          -2.0470    -0.0100    -1.2220 oh         1 AZN      -0.508100
     19 O5           1.3990    -0.5080    -4.8970 o          1 AZN      -0.695533
     20 O           -1.9200    -0.2700     1.3100 o          1 AZN      -0.510100
     21 O2           3.3310    -0.2420     1.3120 o          1 AZN      -0.522100
     22 S1           2.2930     0.0170    -3.9270 s6         1 AZN       1.314100
     23 H9           3.1850     0.0130    -1.2080 ha         1 AZN       0.182000
     24 H11          3.1760     0.5960     3.7130 ha         1 AZN       0.152000
     25 H12         -0.5350     1.0710     5.7780 ha         1 AZN       0.126000
     26 H14          1.9240     1.0880     5.7800 ha         1 AZN       0.127000
     27 H7          -1.7760     0.5620     3.7110 ha         1 AZN       0.149000
     28 H3          -1.1470    -0.7880    -3.6730 ho         1 AZN       0.429000
     29 H1          -2.3640     0.8530    -1.4360 ho         1 AZN       0.420000
@<TRIPOS>BOND
     1     1     3 ar
     2     1     4 ar
     3     1    12 1
     4     2    12 1
     5     2    13 ar
     6     2    14 ar
     7     3     5 1
     8     3     6 ar
     9     4     7 ar
    10     4    18 1
    11     5    13 1
    12     5    21 2
    13     6    11 ar
    14     6    23 1
    15     7    11 ar
    16     7    17 1
    17     8    10 ar
    18     8    13 ar
    19     8    24 1
    20     9    10 ar
    21     9    14 ar
    22     9    25 1
    23    10    26 1
    24    11    22 1
    25    12    20 2
    26    14    27 1
    27    15    22 1
    28    16    22 1
    29    17    28 1
    30    18    29 1
    31    19    22 1
@<TRIPOS>SUBSTRUCTURE
     1 AZN         1 TEMP              0 ****  ****    0 ROOT
