@<TRIPOS>MOLECULE
molecule
   47    49     1     0     0
SMALL
bcc


@<TRIPOS>ATOM
      1 N1          -1.2960    -0.0190    -2.2170 n1         1 AZO      -0.349800
      2 C1          -0.7200    -0.0000    -1.2380 cg         1 AZO       0.238800
      3 C2           0.0000     0.0000     0.0000 ca         1 AZO      -0.016000
      4 C3           1.3960     0.0000     0.0000 ca         1 AZO      -0.064000
      5 C4           2.0840     0.0000     1.1950 ca         1 AZO      -0.156000
      6 C5           1.3950     0.0060     2.3960 ca         1 AZO      -0.139000
      7 C6           0.0140     0.0110     2.4110 ca         1 AZO      -0.103000
      8 C7          -0.6930     0.0110     1.2180 ca         1 AZO       0.142100
      9 O1          -2.0500     0.0170     1.2310 os         1 AZO      -0.316400
     10 C8          -2.4490    -1.2640     1.0380 ca         1 AZO       0.670600
     11 C9          -3.7970    -1.5680     0.8870 ca         1 AZO      -0.392600
     12 C10         -4.1550    -2.8970     0.6920 ca         1 AZO       0.706600
     13 N3          -3.2030    -3.8250     0.6620 nb         1 AZO      -0.811000
     14 C11         -1.9350    -3.4970     0.8040 ca         1 AZO       0.728900
     15 N2          -1.5550    -2.2480     0.9910 nb         1 AZO      -0.839000
     16 O2          -5.4560    -3.2430     0.5400 os         1 AZO      -0.297400
     17 C12         -5.5010    -4.6020     0.5090 ca         1 AZO       0.114100
     18 C13         -5.5370    -5.2700    -0.7040 ca         1 AZO      -0.107000
     19 C14         -5.5820    -6.6510    -0.7320 ca         1 AZO      -0.116000
     20 C15         -5.5870    -7.3740     0.4470 ca         1 AZO      -0.144000
     21 C16         -5.5460    -6.7210     1.6620 ca         1 AZO      -0.113000
     22 C17         -5.4990    -5.3300     1.7030 ca         1 AZO      -0.020800
     23 C18         -5.4550    -4.6240     3.0070 ce         1 AZO      -0.263400
     24 C19         -6.6520    -3.9460     3.5140 c          1 AZO       0.689300
     25 O3          -7.6810    -3.9620     2.8660 o          1 AZO      -0.552000
     26 O4          -6.6110    -3.3040     4.7000 os         1 AZO      -0.410900
     27 C20         -7.7970    -2.6330     5.2030 c3         1 AZO       0.120700
     28 C21         -4.3070    -4.6050     3.7290 c2         1 AZO      -0.148900
     29 O5          -3.2070    -5.2290     3.2630 os         1 AZO      -0.278900
     30 C22         -1.9780    -5.2090     4.0360 c3         1 AZO       0.133700
     31 H3           1.8000    -0.2290    -0.9790 ha         1 AZO       0.146000
     32 H4           3.1020    -0.1130     1.5450 ha         1 AZO       0.145000
     33 H5           2.2710     0.0350     3.0320 ha         1 AZO       0.153000
     34 H6          -0.4360    -0.0720     3.3930 ha         1 AZO       0.147000
     35 H9          -4.4250    -0.6980     0.7380 ha         1 AZO       0.177000
     36 H11         -1.1420    -4.2270     0.6950 h5         1 AZO       0.061100
     37 H13         -5.4340    -4.7810    -1.6650 ha         1 AZO       0.142000
     38 H14         -5.7310    -7.2860    -1.5970 ha         1 AZO       0.134000
     39 H15         -5.8670    -8.4070     0.6140 ha         1 AZO       0.134000
     40 H16         -5.3460    -7.3310     2.5360 ha         1 AZO       0.133000
     41 H201        -7.6650    -1.6050     5.5190 h1         1 AZO       0.048033
     42 H202        -8.3070    -3.3830     5.7950 h1         1 AZO       0.048033
     43 H203        -8.5730    -2.2920     4.5300 h1         1 AZO       0.048033
     44 H21         -3.2410    -4.7520     3.6020 h4         1 AZO       0.333000
     45 H221        -1.1590    -4.6650     3.5810 h1         1 AZO       0.082033
     46 H222        -1.7690    -6.1300     4.5670 h1         1 AZO       0.082033
     47 H223        -2.0300    -4.4860     4.8420 h1         1 AZO       0.082033
@<TRIPOS>BOND
     1     1     2 3
     2     2     3 1
     3     3     4 ar
     4     3     8 ar
     5     4     5 ar
     6     4    31 1
     7     5     6 ar
     8     5    32 1
     9     6     7 ar
    10     6    33 1
    11     7     8 ar
    12     7    34 1
    13     8     9 1
    14     9    10 1
    15    10    11 ar
    16    10    15 ar
    17    11    12 ar
    18    11    35 1
    19    12    13 ar
    20    12    16 1
    21    13    14 ar
    22    14    15 ar
    23    14    36 1
    24    16    17 1
    25    17    18 ar
    26    17    22 ar
    27    18    19 ar
    28    18    37 1
    29    19    20 ar
    30    19    38 1
    31    20    21 ar
    32    20    39 1
    33    21    22 ar
    34    21    40 1
    35    22    23 1
    36    23    24 1
    37    23    28 2
    38    24    25 2
    39    24    26 1
    40    26    27 1
    41    27    41 1
    42    27    42 1
    43    27    43 1
    44    28    29 1
    45    28    44 1
    46    29    30 1
    47    30    45 1
    48    30    46 1
    49    30    47 1
@<TRIPOS>SUBSTRUCTURE
     1 AZO         1 TEMP              0 ****  ****    0 ROOT
