@<TRIPOS>MOLECULE
AZP
   90    91     1     0     0
SMALL
bcc


@<TRIPOS>ATOM
      1 N            0.0000     0.0000     0.0000 ns         1 AZP      -0.149900
      2 CAI         -0.6730     1.1620     0.1020 c          1 AZP       0.684100
      3 OAH         -2.0210     1.1620     0.1010 os         1 AZP      -0.424900
      4 CAG         -2.7460     2.4150     0.2110 c3         1 AZP       0.310700
      5 CAE         -4.2280     2.1400     0.1870 ca         1 AZP      -0.124300
      6 CAD         -4.9080     1.9100     1.3680 ca         1 AZP      -0.074000
      7 CAC         -6.2660     1.6580     1.3470 ca         1 AZP      -0.104500
      8 CAB         -6.9460     1.6370     0.1430 ca         1 AZP      -0.086000
      9 CAA         -6.2670     1.8680    -1.0380 ca         1 AZP      -0.104500
     10 CAF         -4.9080     2.1250    -1.0160 ca         1 AZP      -0.074000
     11 OAL         -0.0660     2.2110     0.1940 o          1 AZP      -0.669000
     12 CA           1.4650     0.0000     0.0000 c3         1 AZP      -0.048300
     13 CB           1.9750     0.0000     1.4430 c3         1 AZP      -0.042400
     14 CG           1.5710     1.3080     2.1270 c3         1 AZP      -0.066700
     15 CD1          1.9700     1.2570     3.6020 c3         1 AZP       0.001900
     16 CD2          2.2800     2.4800     1.4460 c3         1 AZP       0.001900
     17 C            1.9680    -1.2310    -0.7100 c          1 AZP       0.570100
     18 O            1.1800    -2.0290    -1.1710 o          1 AZP      -0.633100
     19 NAS          3.2930    -1.4440    -0.8330 ns         1 AZP      -0.180900
     20 CAT          3.7820    -2.6390    -1.5240 c3         1 AZP      -0.043300
     21 CAV          3.8330    -2.3740    -3.0300 c3         1 AZP       0.026900
     22 CAW          2.4360    -2.1570    -3.5490 ca         1 AZP      -0.091300
     23 CBF          1.8980    -0.8830    -3.5770 ca         1 AZP      -0.094000
     24 CBG          0.6160    -0.6830    -4.0550 ca         1 AZP      -0.087500
     25 CBH         -0.1290    -1.7580    -4.5030 ca         1 AZP      -0.082000
     26 CBI          0.4080    -3.0320    -4.4770 ca         1 AZP      -0.087500
     27 CBJ          1.6920    -3.2300    -4.0030 ca         1 AZP      -0.094000
     28 CAU          5.1630    -2.9780    -1.0270 c          1 AZP       0.570100
     29 OAY          5.6880    -2.2880    -0.1780 o          1 AZP      -0.612100
     30 NAX          5.8150    -4.0480    -1.5230 ns         1 AZP      -0.159500
     31 NAZ          7.0990    -4.3620    -1.0610 n          1 AZP      -0.109400
     32 CBA          8.2500    -3.5640    -1.4920 c3         1 AZP       0.086000
     33 CBB          9.2510    -4.4640    -2.2200 c3         1 AZP      -0.139400
     34 CBC         10.4340    -3.6410    -2.6620 c          1 AZP       0.319100
     35 NBE         11.4490    -4.2260    -3.3290 nz         1 AZP       0.198600
     36 OBD         10.4720    -2.4530    -2.4210 o          1 AZP      -0.396100
     37 CBK          7.2770    -5.4000    -0.2190 c          1 AZP       0.616100
     38 OBL          8.3900    -5.6720     0.1820 o          1 AZP      -0.643100
     39 CBM          6.0940    -6.2220     0.2250 c3         1 AZP      -0.101400
     40 CBO          6.5670    -7.3270     1.1700 c3         1 AZP       0.169100
     41 OBN          7.4110    -8.2340     0.4580 oh         1 AZP      -0.564800
     42 CBP          5.3730    -8.0710     1.7100 c          1 AZP       0.653100
     43 OBQ          5.2090    -9.2360     1.4310 o          1 AZP      -0.547000
     44 OBR          4.4910    -7.4410     2.5020 os         1 AZP      -0.430900
     45 CBS          3.3400    -8.1580     3.0210 c3         1 AZP       0.236400
     46 CBT          2.5010    -7.2160     3.8870 c3         1 AZP      -0.003100
     47 HN          -0.5000    -0.8660    -0.0450 hn         1 AZP       0.200500
     48 HAG1        -2.4850     3.0580    -0.6210 h1         1 AZP       0.012200
     49 HAG2        -2.4840     2.9040     1.1410 h1         1 AZP       0.012200
     50 HAD         -4.3750     1.9260     2.3120 ha         1 AZP       0.105500
     51 HAC         -6.7990     1.4780     2.2730 ha         1 AZP       0.105500
     52 HAB         -8.0110     1.4380     0.1260 ha         1 AZP       0.104000
     53 HAA         -6.8000     1.8530    -1.9810 ha         1 AZP       0.105500
     54 HAF         -4.3760     2.3050    -1.9420 ha         1 AZP       0.105500
     55 HA           1.8260     0.8840    -0.5110 h1         1 AZP       0.077700
     56 HB1          1.5440    -0.8370     1.9790 hc         1 AZP       0.022700
     57 HB2          3.0550    -0.0890     1.4440 hc         1 AZP       0.022700
     58 HG           0.4980     1.4390     2.0480 hc         1 AZP       0.054700
     59 HD11         3.0430     1.1270     3.6820 hc         1 AZP       0.006533
     60 HD12         1.6820     2.1820     4.0860 hc         1 AZP       0.006533
     61 HD13         1.4690     0.4260     4.0840 hc         1 AZP       0.006533
     62 HD21         2.0420     2.4820     0.3890 hc         1 AZP       0.006533
     63 HD22         3.3510     2.3780     1.5750 hc         1 AZP       0.006533
     64 HD23         1.9500     3.4100     1.8920 hc         1 AZP       0.006533
     65 HAS          3.9430    -0.7730    -0.4720 hn         1 AZP       0.202500
     66 HAT          3.1140    -3.4690    -1.3260 h1         1 AZP       0.079700
     67 HAV1         4.2760    -3.2260    -3.5320 hc         1 AZP       0.014700
     68 HAV2         4.4310    -1.4910    -3.2210 hc         1 AZP       0.014700
     69 HBF          2.5030    -0.0340    -3.2810 ha         1 AZP       0.098000
     70 HBG          0.2230     0.3220    -4.1440 ha         1 AZP       0.106500
     71 HBH         -1.1310    -1.6010    -4.8830 ha         1 AZP       0.107000
     72 HBI         -0.1790    -3.8750    -4.8200 ha         1 AZP       0.106500
     73 HBJ          2.0540    -4.2340    -4.1890 ha         1 AZP       0.098000
     74 HAX          5.3880    -4.6080    -2.2340 hn         1 AZP       0.202500
     75 HBA1         7.9150    -2.7810    -2.1620 h1         1 AZP       0.052200
     76 HBA2         8.7260    -3.1200    -0.6270 h1         1 AZP       0.052200
     77 HBB1         9.5860    -5.2470    -1.5500 hc         1 AZP       0.079700
     78 HBB2         8.7750    -4.9080    -3.0860 hc         1 AZP       0.079700
     79 HBE1        11.0860    -4.9360    -3.9340 hn         1 AZP       0.248467
     80 HBE2        11.9310    -3.5390    -3.8730 hn         1 AZP       0.248467
     81 HBM1         5.6180    -6.6660    -0.6410 hc         1 AZP       0.054200
     82 HBM2         5.3850    -5.5850     0.7390 hc         1 AZP       0.054200
     83 HBO          7.1210    -6.8870     1.9920 h1         1 AZP       0.036700
     84 HBN          8.0800    -8.5610     1.0360 ho         1 AZP       0.408000
     85 HBS1         2.7390    -8.5220     2.1960 h1         1 AZP       0.010700
     86 HBS2         3.6770    -8.9960     3.6200 h1         1 AZP       0.010700
     87 HBT1         1.6930    -7.7720     4.3470 hc         1 AZP       0.014033
     88 HBT2         3.1260    -6.7820     4.6580 hc         1 AZP       0.014033
     89 HBT3         2.0900    -6.4270     3.2690 hc         1 AZP       0.014033
     90 HBE3        12.0790    -4.6470    -2.6740 hn         1 AZP       0.248467
@<TRIPOS>BOND
     1     1     2 1   
     2     1    12 1   
     3     1    47 1   
     4     2     3 1   
     5     2    11 2   
     6     3     4 1   
     7     4     5 1   
     8     4    48 1   
     9     4    49 1   
    10     5     6 ar  
    11     5    10 ar  
    12     6     7 ar  
    13     6    50 1   
    14     7     8 ar  
    15     7    51 1   
    16     8     9 ar  
    17     8    52 1   
    18     9    10 ar  
    19     9    53 1   
    20    10    54 1   
    21    12    13 1   
    22    12    17 1   
    23    12    55 1   
    24    13    14 1   
    25    13    56 1   
    26    13    57 1   
    27    14    15 1   
    28    14    16 1   
    29    14    58 1   
    30    15    59 1   
    31    15    60 1   
    32    15    61 1   
    33    16    62 1   
    34    16    63 1   
    35    16    64 1   
    36    17    18 2   
    37    17    19 1   
    38    19    20 1   
    39    19    65 1   
    40    20    21 1   
    41    20    28 1   
    42    20    66 1   
    43    21    22 1   
    44    21    67 1   
    45    21    68 1   
    46    22    23 ar  
    47    22    27 ar  
    48    23    24 ar  
    49    23    69 1   
    50    24    25 ar  
    51    24    70 1   
    52    25    26 ar  
    53    25    71 1   
    54    26    27 ar  
    55    26    72 1   
    56    27    73 1   
    57    28    29 2   
    58    28    30 1   
    59    30    31 1   
    60    30    74 1   
    61    31    32 1   
    62    31    37 1   
    63    32    33 1   
    64    32    75 1   
    65    32    76 1   
    66    33    34 1   
    67    33    77 1   
    68    33    78 1   
    69    34    35 1   
    70    34    36 2   
    71    35    79 1   
    72    35    80 1   
    73    35    90 1   
    74    37    38 2   
    75    37    39 1   
    76    39    40 1   
    77    39    81 1   
    78    39    82 1   
    79    40    41 1   
    80    40    42 1   
    81    40    83 1   
    82    41    84 1   
    83    42    43 2   
    84    42    44 1   
    85    44    45 1   
    86    45    46 1   
    87    45    85 1   
    88    45    86 1   
    89    46    87 1   
    90    46    88 1   
    91    46    89 1   
@<TRIPOS>SUBSTRUCTURE
     1 AZP         1 TEMP              0 ****  ****    0 ROOT
