@<TRIPOS>MOLECULE
molecule
   42    44     1     0     0
SMALL
bcc


@<TRIPOS>ATOM
      1 C1           0.0000     0.0000     0.0000 c          1 AZQ       0.609300
      2 C2           1.5130     0.0000     0.0000 c3         1 AZQ      -0.245700
      3 C3           1.8790     0.0000     1.4670 c          1 AZQ       0.607300
      4 N1           0.7170     0.0000     2.1560 n          1 AZQ      -0.275300
      5 C4           0.5080     0.0020     3.5250 cc         1 AZQ       0.824400
      6 N2          -0.6920     0.0030     4.0390 nd         1 AZQ      -0.718000
      7 C5          -1.8080     0.0030     3.2490 ca         1 AZQ       0.372600
      8 C6          -3.0810     0.0030     3.8150 ca         1 AZQ      -0.140300
      9 C7          -4.1940     0.0020     2.9970 ca         1 AZQ      -0.142000
     10 C8          -4.0540     0.0010     1.6210 ca         1 AZQ      -0.059300
     11 C9          -2.7940     0.0000     1.0470 ca         1 AZQ      -0.143000
     12 C10         -1.6720     0.0020     1.8540 ca         1 AZQ      -0.046600
     13 N3          -0.3830     0.0000     1.2930 n          1 AZQ      -0.116500
     14 O1          -0.7250     0.0040    -0.9730 o          1 AZQ      -0.587500
     15 C11          2.0490    -1.2560    -0.6900 c3         1 AZQ      -0.055400
     16 C12          3.5740    -1.1740    -0.7880 c3         1 AZQ      -0.093400
     17 C13          4.1100    -2.4300    -1.4760 c3         1 AZQ      -0.090100
     18 O2           2.9980     0.0010     1.9340 o          1 AZQ      -0.572500
     19 N4           1.5930     0.0010     4.3650 nh         1 AZQ      -0.869300
     20 C14          2.1700     1.2700     4.8160 c3         1 AZQ       0.252100
     21 C15          2.1740    -1.2670     4.8110 c3         1 AZQ       0.252100
     22 C16         -5.2780    -0.0010     0.7420 c3         1 AZQ      -0.047800
     23 H1           1.8890     0.8940    -0.4820 hc         1 AZQ       0.117700
     24 H2          -3.1970     0.0030     4.8920 ha         1 AZQ       0.153000
     25 H3          -5.1840     0.0020     3.4370 ha         1 AZQ       0.137000
     26 H4          -2.6880     0.0000    -0.0310 ha         1 AZQ       0.170000
     27 H5           1.6270    -1.3300    -1.6850 hc         1 AZQ       0.060200
     28 H6           1.7710    -2.1310    -0.1140 hc         1 AZQ       0.060200
     29 H7           3.8520    -0.2990    -1.3640 hc         1 AZQ       0.055200
     30 H8           3.9960    -1.0990     0.2070 hc         1 AZQ       0.055200
     31 H9           5.1900    -2.3730    -1.5410 hc         1 AZQ       0.035700
     32 H10          3.8280    -3.3040    -0.9020 hc         1 AZQ       0.035700
     33 H11          3.6920    -2.5010    -2.4730 hc         1 AZQ       0.035700
     34 H12          1.7450     2.0840     4.2420 h1         1 AZQ       0.038033
     35 H13          3.2440     1.2500     4.6730 h1         1 AZQ       0.038033
     36 H14          1.9490     1.4140     5.8670 h1         1 AZQ       0.038033
     37 H15          3.2350    -1.2750     4.5930 h1         1 AZQ       0.038033
     38 H16          1.6920    -2.0870     4.2920 h1         1 AZQ       0.038033
     39 H17          2.0240    -1.3770     5.8780 h1         1 AZQ       0.038033
     40 H18         -5.2000     0.7960     0.0120 hc         1 AZQ       0.047367
     41 H19         -5.3540    -0.9530     0.2310 hc         1 AZQ       0.047367
     42 H20         -6.1610     0.1530     1.3520 hc         1 AZQ       0.047367
@<TRIPOS>BOND
     1    20    19 1
     2    18     3 2
     3    19    21 1
     4    19     5 1
     5     3     2 1
     6     3     4 1
     7    15     2 1
     8    15    16 1
     9     2     1 1
    10     5     4 1
    11     5     6 2
    12     4    13 1
    13     1    13 1
    14     1    14 2
    15    13    12 1
    16     6     7 1
    17    16    17 1
    18    12     7 ar
    19    12    11 ar
    20     7     8 ar
    21     8     9 ar
    22    11    10 ar
    23     9    10 ar
    24    10    22 1
    25     2    23 1
    26     8    24 1
    27     9    25 1
    28    11    26 1
    29    15    27 1
    30    15    28 1
    31    16    29 1
    32    16    30 1
    33    17    31 1
    34    17    32 1
    35    17    33 1
    36    20    34 1
    37    20    35 1
    38    20    36 1
    39    21    37 1
    40    21    38 1
    41    21    39 1
    42    22    40 1
    43    22    41 1
    44    22    42 1
@<TRIPOS>SUBSTRUCTURE
     1 AZQ         1 TEMP              0 ****  ****    0 ROOT
