@<TRIPOS>MOLECULE
AZR
   45    45     1     0     0
SMALL
bcc


@<TRIPOS>ATOM
      1 C7           0.0000     0.0000     0.0000 c3         1 AZR      -0.029100
      2 S8          -0.0730     5.9720     2.7460 ss         1 AZR      -0.435300
      3 O9           4.1500     0.9060     1.9650 o          1 AZR      -0.580100
      4 O10          1.6200     0.1730     4.1030 o          1 AZR      -0.614100
      5 O11          1.4660     1.3440     6.2240 os         1 AZR      -0.070300
      6 N12          2.0190    -1.1970    -0.6900 n7         1 AZR      -0.629100
      7 N13          1.5520     1.1960     2.1320 ns         1 AZR      -0.212900
      8 N14          1.0190     2.4660     5.4850 n2         1 AZR      -0.336200
      9 N15          0.7930     3.7090     2.0850 nc         1 AZR      -0.597000
     10 N16          0.4940     5.0740     0.1570 nv         1 AZR      -0.511500
     11 S17          2.4120    -1.1230    -2.2980 s6         1 AZR       1.111700
     12 C18          1.5300     0.0000     0.0000 c3         1 AZR       0.226500
     13 C19          2.0400     0.0000     1.4430 c3         1 AZR      -0.126300
     14 C20          3.5470     0.0000     1.4420 c          1 AZR       0.670900
     15 C21          1.4230     1.1950     3.4740 c          1 AZR       0.482800
     16 C22          1.0420     2.4390     4.1830 ce         1 AZR       0.199300
     17 C23          1.3850     1.5110     7.6420 c3         1 AZR       0.044800
     18 C24          0.6860     3.6500     3.4120 cc         1 AZR       0.360000
     19 C25          0.2310     4.7730     4.0020 cd         1 AZR      -0.111400
     20 C26          0.4520     4.8240     1.5180 cd         1 AZR       0.567300
     21 C27          2.2490     2.7020     8.0630 c3         1 AZR      -0.016600
     22 C28         -0.0690     1.7680     8.0430 c3         1 AZR      -0.016600
     23 C29          1.8820     0.2630     8.3250 c          1 AZR       0.986600
     24 O30          2.2660    -0.6740     7.6660 o          1 AZR      -0.877300
     25 O31          1.8980     0.1920     9.6640 o          1 AZR      -0.877300
     26 O32          1.3240    -0.4800    -2.9470 o          1 AZR      -0.663533
     27 O33          3.6050    -0.1860    -2.4260 o          1 AZR      -0.663533
     28 O34          2.8770    -2.4170    -2.6560 o          1 AZR      -0.663533
     29 H7          -0.3610     0.8330    -0.5920 hc         1 AZR       0.004033
     30 H7A         -0.3610    -0.9290    -0.4250 hc         1 AZR       0.004033
     31 H7B         -0.3610     0.0960     1.0170 hc         1 AZR       0.004033
     32 HN12         2.1550    -2.0480    -0.1810 hn         1 AZR       0.315800
     33 HN13         1.3140     2.0140     1.6070 hn         1 AZR       0.222500
     34 HN16        -0.2530     5.5730    -0.2830 hn         1 AZR       0.274800
     35 HN1A         1.2730     4.7570    -0.3860 hn         1 AZR       0.274800
     36 H18          1.8910     0.8840    -0.5110 h1         1 AZR       0.044700
     37 H19          1.6790    -0.8840     1.9540 h1         1 AZR       0.068700
     38 H20          4.0890    -0.8150     0.9790 h4         1 AZR      -0.026800
     39 H25          0.0790     4.9150     5.0650 h4         1 AZR       0.176000
     40 H27          1.7910     3.6200     7.7160 hc         1 AZR       0.002867
     41 H27A         2.3300     2.7250     9.1430 hc         1 AZR       0.002867
     42 H27B         3.2360     2.6040     7.6290 hc         1 AZR       0.002867
     43 H28         -0.3750     2.7430     7.6850 hc         1 AZR       0.002867
     44 H28A        -0.7040     1.0070     7.6050 hc         1 AZR       0.002867
     45 H28B        -0.1570     1.7350     9.1220 hc         1 AZR       0.002867
@<TRIPOS>BOND
     1     1    12 1   
     2     1    29 1   
     3     1    30 1   
     4     1    31 1   
     5     2    19 1   
     6     2    20 1   
     7     3    14 2   
     8     4    15 2   
     9     5     8 1   
    10     5    17 1   
    11     6    11 1   
    12     6    12 1   
    13     6    32 1   
    14     7    13 1   
    15     7    15 1   
    16     7    33 1   
    17     8    16 2   
    18     9    18 1   
    19     9    20 2   
    20    10    20 1   
    21    10    34 1   
    22    10    35 1   
    23    11    26 1   
    24    11    27 1   
    25    11    28 1   
    26    12    13 1   
    27    12    36 1   
    28    13    14 1   
    29    13    37 1   
    30    14    38 1   
    31    15    16 1   
    32    16    18 1   
    33    17    21 1   
    34    17    22 1   
    35    17    23 1   
    36    18    19 2   
    37    19    39 1   
    38    21    40 1   
    39    21    41 1   
    40    21    42 1   
    41    22    43 1   
    42    22    44 1   
    43    22    45 1   
    44    23    24 1   
    45    23    25 1   
@<TRIPOS>SUBSTRUCTURE
     1 AZR         1 TEMP              0 ****  ****    0 ROOT
