@<TRIPOS>MOLECULE
molecule
   45    45     1     0     0
SMALL
bcc


@<TRIPOS>ATOM
      1 C7           0.0000     0.0000     0.0000 c3         1 AZR      -0.106100
      2 S8          -0.0730     5.9720     2.7460 ss         1 AZR      -0.364300
      3 O9           4.1500     0.9060     1.9650 o          1 AZR      -0.537100
      4 O10          1.6200     0.1730     4.1030 o          1 AZR      -0.563100
      5 O11          1.4660     1.3440     6.2240 os         1 AZR      -0.086300
      6 N12          2.0190    -1.1970    -0.6900 n7         1 AZR      -0.934100
      7 N13          1.5520     1.1960     2.1320 ns         1 AZR      -0.573900
      8 N14          1.0190     2.4660     5.4850 n2         1 AZR      -0.400200
      9 N15          0.7930     3.7090     2.0850 nc         1 AZR      -0.740000
     10 N16          0.4940     5.0740     0.1570 nv         1 AZR      -1.001500
     11 S17          2.4120    -1.1230    -2.2980 s6         1 AZR       1.450700
     12 C18          1.5300     0.0000     0.0000 c3         1 AZR       0.260500
     13 C19          2.0400     0.0000     1.4430 c3         1 AZR      -0.013300
     14 C20          3.5470     0.0000     1.4420 c          1 AZR       0.579900
     15 C21          1.4230     1.1950     3.4740 c          1 AZR       0.553800
     16 C22          1.0420     2.4390     4.1830 ce         1 AZR       0.258300
     17 C23          1.3850     1.5110     7.6420 c3         1 AZR       0.037800
     18 C24          0.6860     3.6500     3.4120 cc         1 AZR       0.407000
     19 C25          0.2310     4.7730     4.0020 cd         1 AZR      -0.163400
     20 C26          0.4520     4.8240     1.5180 cd         1 AZR       0.760300
     21 C27          2.2490     2.7020     8.0630 c3         1 AZR      -0.095100
     22 C28         -0.0690     1.7680     8.0430 c3         1 AZR      -0.095100
     23 C29          1.8820     0.2630     8.3250 c          1 AZR       0.907600
     24 O30          2.2660    -0.6740     7.6660 o          1 AZR      -0.823300
     25 O31          1.8980     0.1920     9.6640 o          1 AZR      -0.823300
     26 O32          1.3240    -0.4800    -2.9470 o          1 AZR      -0.735200
     27 O33          3.6050    -0.1860    -2.4260 o          1 AZR      -0.735200
     28 O34          2.8770    -2.4170    -2.6560 o          1 AZR      -0.735200
     29 H7          -0.3610    -0.8270    -0.6000 hc         1 AZR       0.034033
     30 H7A         -0.3610     0.9330    -0.4160 hc         1 AZR       0.034033
     31 H7B         -0.3610    -0.1060     1.0160 hc         1 AZR       0.034033
     32 HN12         2.0660    -2.0710    -0.2040 hn         1 AZR       0.414800
     33 HN13         1.3530     2.0270     1.6120 hn         1 AZR       0.348500
     34 HN16         1.1980     4.6430    -0.4090 hn         1 AZR       0.448300
     35 HN1A        -0.1760     5.6890    -0.2590 hn         1 AZR       0.448300
     36 H18          1.8910     0.8840    -0.5110 h1         1 AZR       0.073700
     37 H19          1.6790    -0.8840     1.9540 h1         1 AZR       0.091700
     38 H20          4.0880    -0.8430     1.0300 h4         1 AZR       0.007200
     39 H25          0.0790     4.9150     5.0650 h4         1 AZR       0.197000
     40 H27          3.2270     2.6180     7.6070 hc         1 AZR       0.030033
     41 H27A         1.7770     3.6220     7.7400 hc         1 AZR       0.030033
     42 H27B         2.3520     2.7090     9.1420 hc         1 AZR       0.030033
     43 H28         -0.1610     1.7140     9.1210 hc         1 AZR       0.030033
     44 H28A        -0.7060     1.0190     7.5890 hc         1 AZR       0.030033
     45 H28B        -0.3690     2.7520     7.7030 hc         1 AZR       0.030033
@<TRIPOS>BOND
     1     1    12 1
     2     2    20 1
     3     4    15 2
     4     5     8 1
     5     5    17 1
     6     6    12 1
     7     6    11 1
     8     9    20 2
     9    11    27 1
    10    13     7 1
    11    13    12 1
    12    13    14 1
    13    14     3 2
    14    15     7 1
    15    15    16 1
    16    16     8 2
    17    16    18 1
    18    17    23 1
    19    17    22 1
    20    18     9 1
    21    19     2 1
    22    19    18 2
    23    20    10 1
    24    21    17 1
    25    23    25 1
    26    24    23 1
    27    26    11 1
    28    28    11 1
    29     1    29 1
    30     1    30 1
    31     1    31 1
    32     6    32 1
    33     7    33 1
    34    10    34 1
    35    10    35 1
    36    12    36 1
    37    13    37 1
    38    14    38 1
    39    19    39 1
    40    21    40 1
    41    21    41 1
    42    21    42 1
    43    22    43 1
    44    22    44 1
    45    22    45 1
@<TRIPOS>SUBSTRUCTURE
     1 AZR         1 TEMP              0 ****  ****    0 ROOT
