@<TRIPOS>MOLECULE
AZT
   43    44     1     0     0
SMALL
bcc


@<TRIPOS>ATOM
      1 PA         -1.3470    0.5110   -0.3310 p5        1 AZT      2.081000
      2 O1A        -0.7070   -0.6040   -1.0790 o         1 AZT     -0.903000
      3 O2A        -1.3940    0.5080    1.1450 o         1 AZT     -0.903000
      4 O3A        -0.9730    1.9480   -0.9280 os        1 AZT     -1.296000
      5 PB         -0.6600    3.4810   -1.4940 p5        1 AZT      2.200000
      6 O1B        -1.8040    4.3230   -1.0900 o         1 AZT     -0.911000
      7 O2B        -0.2510    3.3650   -2.9060 o         1 AZT     -0.911000
      8 O3B         0.6500    3.9580   -0.6150 os        1 AZT     -1.308000
      9 PG          1.9370    4.6410    0.1060 p5        1 AZT      2.066000
     10 O1G         1.4530    4.3290    1.6460 oh        1 AZT     -0.851000
     11 O2G         1.9600    6.1150   -0.0570 o         1 AZT     -0.907000
     12 O3G         3.1890    3.8790   -0.1120 o         1 AZT     -0.907000
     13 O5'        -2.9510    0.3090   -0.7970 os        1 AZT     -0.747000
     14 C5'        -3.2030   -0.1430   -2.0790 c3        1 AZT      0.066000
     15 C4'        -3.5540   -1.6500   -2.0710 c3        1 AZT     -0.013000
     16 O4'        -4.6830   -1.8720   -2.9420 os        1 AZT     -0.309000
     17 C3'        -2.3820   -2.5460   -2.5660 c3        1 AZT     -0.039000
     18 N3'        -1.9760   -3.5820   -1.6160 n2        1 AZT     -0.333000
     19 N4'        -1.1740   -3.3600   -0.6850 n2        1 AZT      0.284000
     20 N5'        -0.4730   -3.4100    0.2060 n1        1 AZT     -0.102000
     21 C2'        -2.9320   -3.2150   -3.8420 c3        1 AZT     -0.182000
     22 C1'        -4.4660   -3.0820   -3.7080 c3        1 AZT      0.148000
     23 N1         -5.1990   -3.0400   -4.9580 n         1 AZT     -0.294000
     24 C2         -5.9620   -4.1970   -5.4150 c2        1 AZT      0.352000
     25 O2         -5.9050   -5.2250   -4.6790 o         1 AZT     -0.487000
     26 N3         -6.6780   -4.1590   -6.5820 n2        1 AZT     -0.430000
     27 C4         -6.7000   -3.0110   -7.3420 c2        1 AZT      0.312000
     28 O4         -7.3570   -2.9630   -8.4250 o         1 AZT     -0.509000
     29 C5         -5.9480   -1.8170   -6.8810 c2        1 AZT     -0.336000
     30 C5A        -5.9800   -0.5900   -7.6940 c3        1 AZT     -0.118000
     31 C6         -5.2480   -1.8890   -5.7070 c2        1 AZT      0.045000
     32 H5'1       -2.3160    0.0470   -2.7430 h1        1 AZT      0.066500
     33 H5'2       -4.0980    0.4130   -2.4800 h1        1 AZT      0.066500
     34 H4'        -3.8970   -1.9390   -1.0400 h1        1 AZT      0.097000
     35 H3'        -1.5040   -1.8730   -2.8190 h1        1 AZT      0.171000
     36 H2'1       -2.6480   -4.2870   -3.9510 hc        1 AZT      0.089500
     37 H2'2       -2.5530   -2.6550   -4.7320 hc        1 AZT      0.089500
     38 H1'        -4.8770   -3.9450   -3.1030 h2        1 AZT      0.121000
     39 HN3         0.7470    3.6960    1.6940 ho        1 AZT      0.230000
     40 H51        -7.0010   -0.4500   -8.1310 hc        1 AZT      0.052333
     41 H52        -5.2560   -0.6660   -8.5450 hc        1 AZT      0.052333
     42 H53        -5.7160    0.3130   -7.0900 hc        1 AZT      0.052333
     43 H6         -4.6930   -1.0220   -5.2970 h4        1 AZT      0.151000
@<TRIPOS>BOND
     1    1    2 1   
     2    1    3 1   
     3    1    4 1   
     4    1   13 1   
     5    4    5 1   
     6    5    6 1   
     7    5    7 1   
     8    5    8 1   
     9    8    9 1   
    10    9   10 1   
    11    9   11 1   
    12    9   12 1   
    13   10   39 1   
    14   13   14 1   
    15   14   15 1   
    16   14   32 1   
    17   14   33 1   
    18   15   16 1   
    19   15   17 1   
    20   15   34 1   
    21   16   22 1   
    22   17   18 1   
    23   17   21 1   
    24   17   35 1   
    25   18   19 1   
    26   19   20 1   
    27   21   22 1   
    28   21   36 1   
    29   21   37 1   
    30   22   23 1   
    31   22   38 1   
    32   23   24 1   
    33   23   31 1   
    34   24   25 1   
    35   24   26 1   
    36   26   27 1   
    37   27   28 1   
    38   27   29 1   
    39   29   30 1   
    40   29   31 1   
    41   30   40 1   
    42   30   41 1   
    43   30   42 1   
    44   31   43 1   
@<TRIPOS>SUBSTRUCTURE
     1 AZT         1 TEMP              0 ****  ****    0 ROOT
