@<TRIPOS>MOLECULE
AZU
   33    33     1     0     0
SMALL
bcc


@<TRIPOS>ATOM
      1 C01          0.0000     0.0000     0.0000 c3         1 AZU       0.009900
      2 C02          1.5300     0.0000     0.0000 c3         1 AZU      -0.084000
      3 C03          2.0400     0.0000     1.4420 c3         1 AZU       0.009900
      4 C04          2.0390    -1.2510    -0.7200 c3         1 AZU       0.009900
      5 C05          2.0400     1.2480    -0.7220 c3         1 AZU       0.234400
      6 O06          3.4920     1.2470    -0.7230 os         1 AZU      -0.407900
      7 C07          4.1010     2.2820    -1.3210 c          1 AZU       0.708100
      8 O08          3.4440     3.1600    -1.8290 o          1 AZU      -0.559000
      9 C09          5.6060     2.3510    -1.3620 c3         1 AZU       0.019700
     10 S10          6.1210     3.8560    -2.2330 ss         1 AZU      -0.164300
     11 C11          7.8790     3.7640    -2.1800 cc         1 AZU       0.350200
     12 N12          8.4750     2.7530    -1.6010 nd         1 AZU      -0.542300
     13 N13          9.8730     2.6940    -1.5680 ns         1 AZU       0.080100
     14 C14         10.6200     3.6650    -2.1240 c          1 AZU       0.567500
     15 O15         11.8330     3.5860    -2.0780 o          1 AZU      -0.687500
     16 N16         10.0470     4.7220    -2.7280 ns         1 AZU      -0.128500
     17 C17          8.7040     4.8200    -2.7900 c          1 AZU       0.510200
     18 O18          8.1790     5.7700    -3.3400 o          1 AZU      -0.599500
     19 H1          -0.3610     0.8850     0.5100 hc         1 AZU       0.007589
     20 H2          -0.3610    -0.0010    -1.0210 hc         1 AZU       0.007589
     21 H3          -0.3610    -0.8840     0.5110 hc         1 AZU       0.007589
     22 H4           3.1130    -0.1500     1.4460 hc         1 AZU       0.007589
     23 H5           1.5620    -0.8000     1.9940 hc         1 AZU       0.007589
     24 H6           1.8060     0.9500     1.9080 hc         1 AZU       0.007589
     25 H7           1.5610    -2.1280    -0.3020 hc         1 AZU       0.007589
     26 H8           1.8050    -1.1800    -1.7760 hc         1 AZU       0.007589
     27 H9           3.1120    -1.3300    -0.5930 hc         1 AZU       0.007589
     28 H10          1.6780     1.2480    -1.7440 h1         1 AZU       0.016700
     29 H11          1.6800     2.1330    -0.2120 h1         1 AZU       0.016700
     30 H12          5.9940     2.3680    -0.3510 h1         1 AZU       0.065700
     31 H13          5.9930     1.4830    -1.8820 h1         1 AZU       0.065700
     32 H14         10.3240     1.9180    -1.1240 hn         1 AZU       0.223500
     33 H15         10.6200     5.4340    -3.1370 hn         1 AZU       0.215500
@<TRIPOS>BOND
     1     1     2 1   
     2     1    19 1   
     3     1    20 1   
     4     1    21 1   
     5     2     3 1   
     6     2     4 1   
     7     2     5 1   
     8     3    22 1   
     9     3    23 1   
    10     3    24 1   
    11     4    25 1   
    12     4    26 1   
    13     4    27 1   
    14     5     6 1   
    15     5    28 1   
    16     5    29 1   
    17     6     7 1   
    18     7     8 2   
    19     7     9 1   
    20     9    10 1   
    21     9    30 1   
    22     9    31 1   
    23    10    11 1   
    24    11    12 2   
    25    11    17 1   
    26    12    13 1   
    27    13    14 1   
    28    13    32 1   
    29    14    15 2   
    30    14    16 1   
    31    16    17 1   
    32    16    33 1   
    33    17    18 2   
@<TRIPOS>SUBSTRUCTURE
     1 AZU         1 TEMP              0 ****  ****    0 ROOT
