@<TRIPOS>MOLECULE
AZV
   69    72     1     0     0
SMALL
bcc


@<TRIPOS>ATOM
      1 C            0.0000     0.0000     0.0000 c2         1 AZV       0.397000
      2 N            1.9960    -1.1970    -0.6900 nu         1 AZV       0.126000
      3 O           -0.6700     1.0100     0.5760 o          1 AZV      -0.609500
      4 CA           1.5080     0.0000     0.0000 c3         1 AZV      -0.156000
      5 CB           2.0180     0.0000     1.4430 c3         1 AZV      -0.088000
      6 CAA         10.4340    -2.3020    -1.4920 c3         1 AZV      -0.146000
      7 NAB         10.1520    -3.7240    -1.2480 n3         1 AZV       0.006000
      8 CAC         10.0960    -4.6320    -2.2420 c3         1 AZV       0.290000
      9 OAD         10.3720    -4.3070    -3.3780 o          1 AZV      -0.443000
     10 CAE          9.6890    -6.0520    -1.9430 c3         1 AZV      -0.305000
     11 CAF          9.7060    -6.8700    -3.2360 c3         1 AZV      -0.174000
     12 NAG          8.6810    -6.3570    -4.1540 nz         1 AZV       0.653000
     13 CAH          9.4150    -8.3380    -2.9150 c3         1 AZV      -0.066000
     14 CAI          9.5530    -9.1640    -4.1670 ca         1 AZV      -0.160000
     15 CAJ         10.7080    -9.8880    -4.3950 ca         1 AZV      -0.064000
     16 CAK         10.8360   -10.6450    -5.5450 ca         1 AZV       0.072000
     17 FAL         11.9650   -11.3530    -5.7670 f          1 AZV      -0.058000
     18 CAM          9.8030   -10.6790    -6.4700 ca         1 AZV       0.105000
     19 FAN          9.9260   -11.4200    -7.5930 f          1 AZV      -0.055000
     20 CAO          8.6470    -9.9550    -6.2430 ca         1 AZV      -0.112000
     21 CAP          8.5190    -9.2010    -5.0880 ca         1 AZV       0.036000
     22 FAQ          7.3870    -8.4980    -4.8630 f          1 AZV      -0.071000
     23 CAR          9.4300    -1.7260    -2.4570 c2         1 AZV       0.196000
     24 OAS          9.7900    -1.3350    -3.5470 o          1 AZV      -0.370000
     25 NAT          8.1310    -1.6470    -2.1070 ns         1 AZV       0.010000
     26 CAV          5.3110    -0.0620    -1.7960 ca         1 AZV      -0.030000
     27 CAW          5.7710    -1.1920    -2.4470 ca         1 AZV      -0.266000
     28 CAX          4.9790    -2.3250    -2.5150 ca         1 AZV      -0.030000
     29 CAY          3.7270    -2.3290    -1.9340 ca         1 AZV      -0.226500
     30 CAZ          3.2620    -1.1950    -1.2790 ca         1 AZV       0.016000
     31 CBA          9.9390    -4.0800     0.1530 c3         1 AZV      -0.098000
     32 CBB          9.3110    -2.8730     0.9050 c3         1 AZV      -0.170000
     33 SBC         10.2760    -1.4970     0.1490 ss         1 AZV       0.039000
     34 CBD          4.0600    -0.0610    -1.2120 ca         1 AZV      -0.226500
     35 CG1          1.6120    -1.3070     2.1270 c3         1 AZV      -0.141000
     36 CG2          3.5420     0.1250     1.4450 c3         1 AZV      -0.141000
     37 OXT         -0.6040    -0.9060    -0.5230 o          1 AZV      -0.609500
     38 HN           1.4300    -2.0220    -0.7220 hn         1 AZV       0.109000
     39 HA           1.8690     0.8840    -0.5110 h1         1 AZV       0.084000
     40 HB           1.7340     0.9890     1.7820 hc         1 AZV       0.104000
     41 HAA         11.4420    -2.1800    -1.8720 h2         1 AZV       0.141000
     42 HAE         10.7180    -5.7180    -1.9920 DU         1 AZV       0.115000
     43 HAEA         9.5470    -6.4730    -0.9550 hc         1 AZV       0.173000
     44 HAF         10.6810    -6.7890    -3.7010 hx         1 AZV       0.132000
     45 HNAG         9.5550    -6.2590    -4.6300 hn         1 AZV       0.077333
     46 HNAA         8.0740    -7.0570    -4.5340 hn         1 AZV       0.077333
     47 HAH         10.1190    -8.6910    -2.1700 hc         1 AZV       0.098000
     48 HAHA         8.4060    -8.4300    -2.5300 hc         1 AZV       0.098000
     49 HAJ         11.5090    -9.8710    -3.6660 ha         1 AZV       0.140000
     50 HAO          7.8390    -9.9830    -6.9640 ha         1 AZV       0.156000
     51 HNAT         7.8390    -1.9360    -1.1950 hn         1 AZV       0.094000
     52 HAU          7.3830    -0.1870    -3.4070 h1         1 AZV       0.060000
     53 HAUA         7.1380    -1.8560    -3.9380 h1         1 AZV       0.060000
     54 HAV          5.9340     0.8230    -1.7430 ha         1 AZV       0.080500
     55 HAX          5.3420    -3.2090    -3.0260 ha         1 AZV       0.080500
     56 HAY          3.1070    -3.2160    -1.9880 ha         1 AZV       0.130500
     57 HBA          9.2680    -4.9280     0.2110 h1         1 AZV       0.075500
     58 HBAA        10.8890    -4.3320     0.6090 h1         1 AZV       0.075500
     59 HBB          9.4920    -2.9390     1.9710 h1         1 AZV       0.110500
     60 HBBA         8.2550    -2.7790     0.6810 h1         1 AZV       0.110500
     61 HBD          3.7010     0.8250    -0.7020 ha         1 AZV       0.130500
     62 HG1          0.5430    -1.4520     2.0250 hc         1 AZV       0.043833
     63 HG1A         1.8710    -1.2600     3.1780 hc         1 AZV       0.043833
     64 HG1B         2.1340    -2.1350     1.6630 hc         1 AZV       0.043833
     65 HG2          3.9190    -0.0820     2.4390 hc         1 AZV       0.043833
     66 HG2A         3.9630    -0.5850     0.7440 hc         1 AZV       0.043833
     67 HG2B         3.8220     1.1300     1.1540 hc         1 AZV       0.043833
     68 HAG3         8.2670    -5.4900    -3.8740 hn         1 AZV       0.077333
     69 CAU          7.1370    -1.1910    -3.0830 c3         1 AZV       0.014000
@<TRIPOS>BOND
     1     1     3 1   
     2     1     4 1   
     3     1    37 1   
     4     2     4 1   
     5     2    30 1   
     6     2    38 1   
     7     4     5 1   
     8     4    39 1   
     9     5    35 1   
    10     5    36 1   
    11     5    40 1   
    12     6     7 1   
    13     6    23 1   
    14     6    33 1   
    15     6    41 1   
    16     7     8 1   
    17     7    31 1   
    18     8     9 1   
    19     8    10 1   
    20     8    42 1   
    21    10    11 1   
    22    10    42 1   
    23    10    43 1   
    24    11    12 1   
    25    11    13 1   
    26    11    44 1   
    27    12    45 1   
    28    12    46 1   
    29    12    68 1   
    30    13    14 1   
    31    13    47 1   
    32    13    48 1   
    33    14    15 1   
    34    14    21 1   
    35    15    16 1   
    36    15    49 1   
    37    16    17 1   
    38    16    18 1   
    39    18    19 1   
    40    18    20 1   
    41    20    21 1   
    42    20    50 1   
    43    21    22 1   
    44    23    24 1   
    45    23    25 1   
    46    25    51 1   
    47    25    69 1   
    48    26    27 1   
    49    26    34 1   
    50    26    54 1   
    51    27    28 1   
    52    27    69 1   
    53    28    29 1   
    54    28    55 1   
    55    29    30 1   
    56    29    56 1   
    57    30    34 1   
    58    31    32 1   
    59    31    57 1   
    60    31    58 1   
    61    32    33 1   
    62    32    59 1   
    63    32    60 1   
    64    34    61 1   
    65    35    62 1   
    66    35    63 1   
    67    35    64 1   
    68    36    65 1   
    69    36    66 1   
    70    36    67 1   
    71    52    69 1   
    72    53    69 1   
@<TRIPOS>SUBSTRUCTURE
     1 AZV         1 TEMP              0 ****  ****    0 ROOT
