@<TRIPOS>MOLECULE
molecule
   69    71     1     0     0
SMALL
bcc


@<TRIPOS>ATOM
      1 C            0.0000     0.0000     0.0000 c          1 AZV       0.889600
      2 N            1.9960    -1.1970    -0.6900 nu         1 AZV      -0.753600
      3 O           -0.6700     1.0100     0.5760 o          1 AZV      -0.828800
      4 CA           1.5080     0.0000     0.0000 c3         1 AZV       0.110500
      5 CB           2.0180     0.0000     1.4430 c3         1 AZV      -0.074700
      6 CAA         10.4340    -2.3020    -1.4920 c3         1 AZV       0.131800
      7 NAB         10.1520    -3.7240    -1.2480 n          1 AZV      -0.481800
      8 CAC         10.0960    -4.6320    -2.2420 c          1 AZV       0.701100
      9 OAD         10.3720    -4.3070    -3.3780 o          1 AZV      -0.636100
     10 CAE          9.6890    -6.0520    -1.9430 c3         1 AZV      -0.298400
     11 CAF          9.7060    -6.8700    -3.2360 c3         1 AZV       0.147500
     12 NAG          8.6810    -6.3570    -4.1540 nz         1 AZV      -0.879600
     13 CAH          9.4150    -8.3380    -2.9150 c3         1 AZV      -0.054100
     14 CAI          9.5530    -9.1640    -4.1670 ca         1 AZV      -0.160300
     15 CAJ         10.7080    -9.8880    -4.3950 ca         1 AZV      -0.109000
     16 CAK         10.8360   -10.6450    -5.5450 ca         1 AZV       0.118900
     17 FAL         11.9650   -11.3530    -5.7670 f          1 AZV      -0.097900
     18 CAM          9.8030   -10.6790    -6.4700 ca         1 AZV       0.149900
     19 FAN          9.9260   -11.4200    -7.5930 f          1 AZV      -0.091900
     20 CAO          8.6470    -9.9550    -6.2430 ca         1 AZV      -0.155000
     21 CAP          8.5190    -9.2010    -5.0880 ca         1 AZV       0.095900
     22 FAQ          7.3870    -8.4980    -4.8630 f          1 AZV      -0.125900
     23 CAR          9.4300    -1.7260    -2.4570 c          1 AZV       0.642100
     24 OAS          9.7900    -1.3350    -3.5470 o          1 AZV      -0.575100
     25 NAT          8.1310    -1.6470    -2.1070 ns         1 AZV      -0.564900
     26 CAV          5.3110    -0.0620    -1.7960 ca         1 AZV      -0.069000
     27 CAW          5.7710    -1.1920    -2.4470 ca         1 AZV      -0.243300
     28 CAX          4.9790    -2.3250    -2.5150 ca         1 AZV      -0.069000
     29 CAY          3.7270    -2.3290    -1.9340 ca         1 AZV      -0.230000
     30 CAZ          3.2620    -1.1950    -1.2790 ca         1 AZV       0.239600
     31 CBA          9.9390    -4.0800     0.1530 c3         1 AZV       0.069000
     32 CBB          9.3110    -2.8730     0.9050 c3         1 AZV       0.009700
     33 SBC         10.2760    -1.4970     0.1490 ss         1 AZV      -0.273200
     34 CBD          4.0600    -0.0610    -1.2120 ca         1 AZV      -0.230000
     35 CG1          1.6120    -1.3070     2.1270 c3         1 AZV      -0.092100
     36 CG2          3.5420     0.1250     1.4450 c3         1 AZV      -0.092100
     37 OXT         -0.6040    -0.9060    -0.5230 o          1 AZV      -0.828800
     38 HN           1.4300    -2.0220    -0.7220 hn         1 AZV       0.460800
     39 HA           1.8690     0.8840    -0.5110 h1         1 AZV       0.058700
     40 HB           1.7340     0.9890     1.7820 hc         1 AZV       0.085700
     41 HAA         11.4420    -2.1800    -1.8720 h2         1 AZV       0.127700
     42 HAE         10.7180    -5.7180    -1.9920 hc         1 AZV       0.129200
     43 HAEA         9.5470    -6.4730    -0.9550 hc         1 AZV       0.129200
     44 HAF         10.6810    -6.7890    -3.7010 hx         1 AZV       0.113700
     45 HNAG         9.5550    -6.2590    -4.6300 hn         1 AZV       0.484800
     46 HNAA         8.0740    -7.0570    -4.5340 hn         1 AZV       0.484800
     47 HAH         10.1190    -8.6910    -2.1700 hc         1 AZV       0.097200
     48 HAHA         8.4060    -8.4300    -2.5300 hc         1 AZV       0.097200
     49 HAJ         11.5090    -9.8710    -3.6660 ha         1 AZV       0.172000
     50 HAO          7.8390    -9.9830    -6.9640 ha         1 AZV       0.189000
     51 HNAT         7.8390    -1.9360    -1.1950 hn         1 AZV       0.316500
     52 HAU          7.3830    -0.1870    -3.4070 h1         1 AZV       0.049200
     53 HAUA         7.1380    -1.8560    -3.9380 h1         1 AZV       0.049200
     54 HAV          5.9340     0.8230    -1.7430 ha         1 AZV       0.107500
     55 HAX          5.3420    -3.2090    -3.0260 ha         1 AZV       0.107500
     56 HAY          3.1070    -3.2160    -1.9880 ha         1 AZV       0.144000
     57 HBA          9.2680    -4.9280     0.2110 h1         1 AZV       0.063700
     58 HBAA        10.8890    -4.3320     0.6090 h1         1 AZV       0.063700
     59 HBB          9.4920    -2.9390     1.9710 h1         1 AZV       0.100700
     60 HBBA         8.2550    -2.7790     0.6810 h1         1 AZV       0.100700
     61 HBD          3.7010     0.8250    -0.7020 ha         1 AZV       0.144000
     62 HG1          0.5430    -1.4520     2.0250 hc         1 AZV       0.028200
     63 HG1A         1.8710    -1.2600     3.1780 hc         1 AZV       0.028200
     64 HG1B         2.1340    -2.1350     1.6630 hc         1 AZV       0.028200
     65 HG2          3.9190    -0.0820     2.4390 hc         1 AZV       0.028200
     66 HG2A         3.9630    -0.5850     0.7440 hc         1 AZV       0.028200
     67 HG2B         3.8220     1.1300     1.1540 hc         1 AZV       0.028200
     68 HAG3         8.2670    -5.4900    -3.8740 hn         1 AZV       0.484800
     69 CAU          7.1370    -1.1910    -3.0830 c3         1 AZV       0.177300
@<TRIPOS>BOND
     1     1     3 1
     2     1     4 1
     3     1    37 1
     4     2     4 1
     5     2    30 1
     6     4     5 1
     7     5    35 1
     8     5    36 1
     9     6     7 1
    10     6    23 1
    11     6    33 1
    12     7     8 1
    13     7    31 1
    14     8     9 2
    15     8    10 1
    16    10    11 1
    17    11    12 1
    18    11    13 1
    19    13    14 1
    20    14    15 ar
    21    14    21 ar
    22    15    16 ar
    23    16    17 1
    24    16    18 ar
    25    18    19 1
    26    18    20 ar
    27    20    21 ar
    28    21    22 1
    29    23    24 2
    30    23    25 1
    31    25    69 1
    32    69    27 1
    33    26    27 ar
    34    26    34 ar
    35    27    28 ar
    36    28    29 ar
    37    29    30 ar
    38    30    34 ar
    39    31    32 1
    40    32    33 1
    41     2    38 1
    42     4    39 1
    43     5    40 1
    44     6    41 1
    45    10    42 1
    46    10    43 1
    47    11    44 1
    48    12    45 1
    49    12    46 1
    50    13    47 1
    51    13    48 1
    52    15    49 1
    53    20    50 1
    54    25    51 1
    55    69    52 1
    56    69    53 1
    57    26    54 1
    58    28    55 1
    59    29    56 1
    60    31    57 1
    61    31    58 1
    62    32    59 1
    63    32    60 1
    64    34    61 1
    65    35    62 1
    66    35    63 1
    67    35    64 1
    68    36    65 1
    69    36    66 1
    70    36    67 1
    71    68    12 1
@<TRIPOS>SUBSTRUCTURE
     1 AZV         1 TEMP              0 ****  ****    0 ROOT
