@<TRIPOS>MOLECULE
AZW
   35    36     1     0     0
SMALL
bcc


@<TRIPOS>ATOM
      1 P            0.0000     0.0000     0.0000 p5         1 AZW       0.694900
      2 OP1          1.4800     0.0000     0.0000 o          1 AZW      -0.708500
      3 OP2         -0.5370     0.0000     1.5170 o          1 AZW      -0.708500
      4 O5'         -0.5360     1.3150    -0.7590 os         1 AZW      -0.464200
      5 C5'         -0.1470     2.6390    -0.3900 c3         1 AZW       0.319700
      6 C1A         -0.8260     3.6340    -1.2960 ca         1 AZW      -0.002300
      7 C2A         -0.2110     4.0230    -2.4740 ca         1 AZW      -0.116000
      8 C6A         -2.0630     4.1480    -0.9510 ca         1 AZW      -0.116000
      9 C3A         -0.8260     4.9320    -3.3090 ca         1 AZW      -0.075500
     10 C5A         -2.6900     5.0570    -1.7770 ca         1 AZW      -0.075500
     11 C4A         -2.0740     5.4600    -2.9640 ca         1 AZW      -0.016600
     12 N5A         -2.6890     6.3620    -3.7870 ne         1 AZW      -0.122400
     13 C1B         -5.7020     9.5760    -5.9540 ca         1 AZW      -0.164300
     14 C2B         -6.3170     9.1860    -4.7780 ca         1 AZW      -0.077500
     15 C6B         -4.4670     9.0580    -6.3030 ca         1 AZW      -0.077500
     16 C3B         -5.7020     8.2770    -3.9430 ca         1 AZW      -0.127500
     17 C5B         -3.8380     8.1510    -5.4760 ca         1 AZW      -0.127500
     18 C4B         -4.4550     7.7490    -4.2870 ca         1 AZW       0.148400
     19 N5B         -3.8390     6.8470    -3.4660 nf         1 AZW      -0.302400
     20 O3'         -7.2060     9.8660    -7.8000 oh         1 AZW      -0.586800
     21 H5'         -0.4390     2.8290     0.6360 h1         1 AZW      -0.022300
     22 H5''         0.9270     2.7400    -0.4840 h1         1 AZW      -0.022300
     23 H2A          0.7560     3.6130    -2.7390 ha         1 AZW       0.115500
     24 H6A         -2.5400     3.8350    -0.0300 ha         1 AZW       0.115500
     25 H3A         -0.3420     5.2380    -4.2290 ha         1 AZW       0.098500
     26 H5A         -3.6580     5.4600    -1.5040 ha         1 AZW       0.098500
     27 H2B         -7.2840     9.5970    -4.5120 ha         1 AZW       0.090000
     28 H6B         -3.9910     9.3690    -7.2240 ha         1 AZW       0.090000
     29 H3B         -6.1860     7.9710    -3.0230 ha         1 AZW       0.118500
     30 H5B         -2.8710     7.7460    -5.7500 ha         1 AZW       0.118500
     31 H3'         -6.9950    11.2370    -6.2740 h1         1 AZW      -0.024800
     32 H3''        -5.6340    11.1380    -7.4000 h1         1 AZW      -0.024800
     33 H3          -7.6310    10.4860    -8.3690 ho         1 AZW       0.370000
     34 OP3         -0.5370    -1.3150    -0.7600 o          1 AZW      -0.708500
     35 C3'         -6.3820    10.5660    -6.8640 c3         1 AZW       0.293700
@<TRIPOS>BOND
     1     1     2 1   
     2     1     3 1   
     3     1     4 1   
     4     1    34 1   
     5     4     5 1   
     6     5     6 1   
     7     5    21 1   
     8     5    22 1   
     9     6     7 ar  
    10     6     8 ar  
    11     7     9 ar  
    12     7    23 1   
    13     8    10 ar  
    14     8    24 1   
    15     9    11 ar  
    16     9    25 1   
    17    10    11 ar  
    18    10    26 1   
    19    11    12 1   
    20    12    19 2   
    21    13    14 ar  
    22    13    15 ar  
    23    13    35 1   
    24    14    16 ar  
    25    14    27 1   
    26    15    17 ar  
    27    15    28 1   
    28    16    18 ar  
    29    16    29 1   
    30    17    18 ar  
    31    17    30 1   
    32    18    19 1   
    33    20    33 1   
    34    20    35 1   
    35    31    35 1   
    36    32    35 1   
@<TRIPOS>SUBSTRUCTURE
     1 AZW         1 TEMP              0 ****  ****    0 ROOT
