@<TRIPOS>MOLECULE
AZX
   49    50     1     0     0
SMALL
bcc


@<TRIPOS>ATOM
      1 F29          0.0000     0.0000     0.0000 f          1 AZX      -0.197633
      2 C27          1.3990     0.0000     0.0000 c3         1 AZX       0.569900
      3 F30          1.8660    -1.1410    -0.6610 f          1 AZX      -0.197633
      4 F31          1.8640     1.1440    -0.6590 f          1 AZX      -0.197633
      5 C24          1.9090     0.0000     1.4420 c3         1 AZX       0.032800
      6 O25          1.4320     1.1660     2.1170 oh         1 AZX      -0.568800
      7 C26          1.4000    -1.2510     2.1620 c3         1 AZX      -0.032100
      8 C23          3.4170     0.0010     1.4420 c          1 AZX       0.575100
      9 O28          4.0230    -0.4410     0.4890 o          1 AZX      -0.605100
     10 N22          4.0900     0.4940     2.5000 ns         1 AZX       0.000900
     11 C18          5.4850     0.3910     2.5510 ca         1 AZX      -0.039400
     12 C17          6.1360    -0.6020     1.8290 ca         1 AZX      -0.146000
     13 C16          7.5130    -0.7020     1.8830 ca         1 AZX       0.030000
     14 C19          6.2230     1.2830     3.3200 ca         1 AZX      -0.106600
     15 Cl1          5.4140     2.5280     4.2200 cl         1 AZX      -0.010400
     16 C20          7.5990     1.1770     3.3690 ca         1 AZX       0.026000
     17 C15          8.2440     0.1840     2.6530 ca         1 AZX      -0.155500
     18 S12          9.9990     0.0510     2.7180 sy         1 AZX       0.963600
     19 O14         10.4020     0.6620     3.9370 o          1 AZX      -0.590300
     20 O15         10.3130    -1.2930     2.3810 o          1 AZX      -0.590300
     21 C1          10.6460     1.0530     1.4210 ca         1 AZX      -0.131500
     22 C6          10.8500     0.5090     0.1670 ca         1 AZX      -0.005500
     23 C5          11.3570     1.2880    -0.8530 ca         1 AZX      -0.101000
     24 C2          10.9420     2.3840     1.6610 ca         1 AZX      -0.005500
     25 C3          11.4480     3.1750     0.6500 ca         1 AZX      -0.101000
     26 C4          11.6630     2.6290    -0.6160 ca         1 AZX      -0.093600
     27 C7          12.2060     3.4700    -1.7040 c          1 AZX       0.598700
     28 O8          11.6930     3.4440    -2.8070 o          1 AZX      -0.635100
     29 N9          13.2710     4.2650    -1.4740 n          1 AZX      -0.155800
     30 C11         13.8680     5.0250    -2.5750 c3         1 AZX       0.081300
     31 C10         13.8290     4.3670    -0.1250 c3         1 AZX       0.081300
     32 HO25         0.4950     1.1150     2.2080 ho         1 AZX       0.418000
     33 H261         0.3310    -1.3410     2.0170 hc         1 AZX       0.032033
     34 H262         1.6160    -1.1710     3.2210 hc         1 AZX       0.032033
     35 H263         1.8940    -2.1260     1.7580 hc         1 AZX       0.032033
     36 HN22         3.5910     0.9110     3.2600 hn         1 AZX       0.191500
     37 H17          5.5640    -1.2960     1.2250 ha         1 AZX       0.164000
     38 H16          8.0200    -1.4770     1.3220 ha         1 AZX       0.127000
     39 H20          8.1740     1.8710     3.9700 ha         1 AZX       0.133000
     40 H6          10.6130    -0.5320    -0.0160 ha         1 AZX       0.125000
     41 H5          11.5190     0.8590    -1.8350 ha         1 AZX       0.123500
     42 H2          10.7740     2.8050     2.6450 ha         1 AZX       0.125000
     43 H3          11.6810     4.2150     0.8400 ha         1 AZX       0.123500
     44 H111        14.4870     5.8170    -2.1720 h1         1 AZX       0.013867
     45 H112        14.4750     4.3650    -3.1820 h1         1 AZX       0.013867
     46 H113        13.0820     5.4550    -3.1850 h1         1 AZX       0.013867
     47 H101        14.8550     4.7110    -0.1840 h1         1 AZX       0.013867
     48 H102        13.8010     3.3950     0.3530 h1         1 AZX       0.013867
     49 H103        13.2450     5.0710     0.4550 h1         1 AZX       0.013867
@<TRIPOS>BOND
     1     1     2 1   
     2     2     3 1   
     3     2     4 1   
     4     2     5 1   
     5     5     6 1   
     6     5     7 1   
     7     5     8 1   
     8     6    32 1   
     9     7    33 1   
    10     7    34 1   
    11     7    35 1   
    12     8     9 2   
    13     8    10 1   
    14    10    11 1   
    15    10    36 1   
    16    11    12 ar  
    17    11    14 ar  
    18    12    13 ar  
    19    12    37 1   
    20    13    17 ar  
    21    13    38 1   
    22    14    15 1   
    23    14    16 ar  
    24    16    17 ar  
    25    16    39 1   
    26    17    18 1   
    27    18    19 2   
    28    18    20 2   
    29    18    21 1   
    30    21    22 ar  
    31    21    24 ar  
    32    22    23 ar  
    33    22    40 1   
    34    23    26 ar  
    35    23    41 1   
    36    24    25 ar  
    37    24    42 1   
    38    25    26 ar  
    39    25    43 1   
    40    26    27 1   
    41    27    28 2   
    42    27    29 1   
    43    29    30 1   
    44    29    31 1   
    45    30    44 1   
    46    30    45 1   
    47    30    46 1   
    48    31    47 1   
    49    31    48 1   
    50    31    49 1   
@<TRIPOS>SUBSTRUCTURE
     1 AZX         1 TEMP              0 ****  ****    0 ROOT
