@<TRIPOS>MOLECULE
AZZ
   32    33     1     0     0
SMALL
bcc


@<TRIPOS>ATOM
      1 O5'         0.3940   -1.0180    0.0170 oh        1 AZZ     -0.587800
      2 C5'         1.7880   -0.9090    0.1890 c3        1 AZZ      0.124400
      3 C4'         2.1280   -0.1880    1.4940 c3        1 AZZ      0.107100
      4 O4'         1.6530   -0.9740    2.5950 os        1 AZZ     -0.427600
      5 C3'         3.6590    0.0030    1.6670 c3        1 AZZ      0.151500
      6 N3'         4.0080    1.3880    1.3710 n2        1 AZZ     -0.429200
      7 N4'         5.1790    1.8050    1.5480 n1        1 AZZ      0.213000
      8 N5'         6.1570    2.3750    1.6360 n1        1 AZZ     -0.027000
      9 C2'         3.9500   -0.4950    3.0950 c3        1 AZZ     -0.141400
     10 C1'         2.7100   -1.3170    3.5040 c3        1 AZZ      0.305500
     11 N1          2.9300   -2.7600    3.5180 n         1 AZZ     -0.388000
     12 C2          2.4510   -3.5080    4.6320 c         1 AZZ      0.812500
     13 O2          2.0200   -2.9390    5.6580 o         1 AZZ     -0.637500
     14 N3          2.5110   -4.9070    4.5690 n         1 AZZ     -0.583500
     15 C4          2.9850   -5.6110    3.4490 c         1 AZZ      0.715700
     16 O4          2.9850   -6.8520    3.4790 o         1 AZZ     -0.602500
     17 C5          3.4480   -4.7900    2.3130 cc        1 AZZ     -0.243400
     18 C5A         3.9730   -5.5040    1.1330 c3        1 AZZ     -0.033900
     19 C6          3.3790   -3.4330    2.3900 cd        1 AZZ      0.030600
     20 HO5'        0.0400   -1.4530    0.8050 ho        1 AZZ      0.416000
     21 H5'         2.1460   -0.3030   -0.6850 h1        1 AZZ      0.051200
     22 H5'A        2.2600   -1.9280    0.1700 h1        1 AZZ      0.051200
     23 H4'         1.5540    0.7800    1.5510 h1        1 AZZ      0.106700
     24 H3'         4.1860   -0.6850    0.9370 h1        1 AZZ      0.050700
     25 H2'         4.8930   -1.0930    3.1260 hc        1 AZZ      0.078700
     26 H2'A        4.0530    0.3520    3.8190 hc        1 AZZ      0.078700
     27 H1'         2.3270   -1.0210    4.5300 h2        1 AZZ      0.134700
     28 HN3         2.1760   -5.4100    5.3640 hn        1 AZZ      0.355500
     29 H5A         4.0840   -4.8180    0.2590 hc        1 AZZ      0.053367
     30 H5AA        4.9720   -5.9510    1.3700 hc        1 AZZ      0.053367
     31 H5AB        3.2810   -6.3400    0.8550 hc        1 AZZ      0.053367
     32 H6          3.6950   -2.7820    1.5520 h4        1 AZZ      0.158000
@<TRIPOS>BOND
     1    1    2 1   
     2    1   20 1   
     3    2    3 1   
     4    2   21 1   
     5    2   22 1   
     6    3    4 1   
     7    3    5 1   
     8    3   23 1   
     9    4   10 1   
    10    5    6 1   
    11    5    9 1   
    12    5   24 1   
    13    6    7 1   
    14    7    8 3   
    15    9   10 1   
    16    9   25 1   
    17    9   26 1   
    18   10   11 1   
    19   10   27 1   
    20   11   12 1   
    21   11   19 1   
    22   12   13 2   
    23   12   14 1   
    24   14   15 1   
    25   14   28 1   
    26   15   16 2   
    27   15   17 1   
    28   17   18 1   
    29   17   19 2   
    30   18   29 1   
    31   18   30 1   
    32   18   31 1   
    33   19   32 1   
@<TRIPOS>SUBSTRUCTURE
     1 AZZ         1 TEMP              0 ****  ****    0 ROOT
