@<TRIPOS>MOLECULE
I01
   63    66     1     0     0
SMALL
bcc


@<TRIPOS>ATOM
      1 F96          0.0000     0.0000     0.0000 f          1 I01      -0.112900
      2 C76          1.3510     0.0000     0.0000 ca         1 I01       0.126900
      3 C75          2.0460     0.0000     1.1990 ca         1 I01       0.084100
      4 O95          1.3660    -0.0050     2.3760 os         1 I01      -0.264900
      5 C98          2.3440    -0.0100     3.4180 c3         1 I01       0.215700
      6 C74          3.4340    -0.0020     1.2000 ca         1 I01      -0.159000
      7 C73          4.1360     0.0030     0.0100 ca         1 I01      -0.136000
      8 C72          3.4570     0.0080    -1.1980 ca         1 I01       0.151100
      9 O92          4.1490     0.0120    -2.3660 oh         1 I01      -0.488100
     10 C71          2.0540     0.0090    -1.2120 ca         1 I01      -0.192600
     11 C61          1.3260     0.0150    -2.4910 c          1 I01       0.665300
     12 O62          1.0500    -1.0340    -3.0390 o          1 I01      -0.534100
     13 C54          0.9270     1.3000    -3.1090 ca         1 I01      -0.144600
     14 C55          0.1430     1.3040    -4.2640 ca         1 I01      -0.062000
     15 C56         -0.2270     2.5010    -4.8410 ca         1 I01      -0.063000
     16 C53          1.3320     2.5060    -2.5350 ca         1 I01      -0.062000
     17 C52          0.9650     3.7020    -3.1140 ca         1 I01      -0.063000
     18 C51          0.1810     3.7070    -4.2690 ca         1 I01      -0.126600
     19 C42         -0.2160     4.9900    -4.8880 c          1 I01       0.716700
     20 O43         -0.8980     4.9940    -5.8930 o          1 I01      -0.576000
     21 O41          0.1780     6.1540    -4.3360 os         1 I01      -0.421900
     22 C37         -0.2110     7.4140    -4.9440 c3         1 I01       0.181100
     23 C36          0.8650     7.8500    -5.9790 c3         1 I01      -0.037400
     24 C35          0.3510     8.9400    -6.7970 c3         1 I01      -0.036400
     25 C34         -0.0070    10.1990    -5.9980 c3         1 I01       0.123800
     26 N33         -1.3730    10.0460    -5.5600 n7         1 I01      -0.567200
     27 C32         -1.3720     9.5600    -4.1660 c3         1 I01       0.126800
     28 C31         -0.3210     8.4750    -3.8800 c3         1 I01       0.000700
     29 N23         -0.6560     7.8260    -2.6100 ns         1 I01      -0.175900
     30 C21         -0.2420     8.3660    -1.4480 c          1 I01       0.595700
     31 O22          0.4100     9.3910    -1.4520 o          1 I01      -0.650100
     32 C14         -0.5810     7.7100    -0.1630 ca         1 I01      -0.124600
     33 C13         -0.1620     8.2540     1.0550 ca         1 I01      -0.182800
     34 C12         -0.5000     7.6090     2.2290 ca         1 I01       0.395700
     35 N11         -1.2090     6.4980     2.2100 nb         1 I01      -0.565000
     36 C16         -1.6240     5.9520     1.0850 ca         1 I01       0.395700
     37 C15         -1.3350     6.5330    -0.1350 ca         1 I01      -0.182800
     38 H981         1.8470    -0.0150     4.3800 h1         1 I01       0.005033
     39 H982         2.9640     0.8740     3.3360 h1         1 I01       0.005033
     40 H983         2.9630    -0.8950     3.3280 h1         1 I01       0.005033
     41 H74          3.9710    -0.0040     2.1410 ha         1 I01       0.140000
     42 H73          5.2190     0.0010     0.0210 ha         1 I01       0.118000
     43 H92          4.7070    -0.7470    -2.4030 ho         1 I01       0.413000
     44 H55         -0.1740     0.3680    -4.7070 ha         1 I01       0.123000
     45 H56         -0.8360     2.5050    -5.7370 ha         1 I01       0.124500
     46 H53          1.9400     2.5030    -1.6390 ha         1 I01       0.123000
     47 H52          1.2810     4.6380    -2.6690 ha         1 I01       0.124500
     48 H37         -1.1670     7.3020    -5.4420 h1         1 I01       0.057700
     49 H361         1.7530     8.1820    -5.4560 hc         1 I01       0.026700
     50 H362         1.1100     7.0090    -6.6170 hc         1 I01       0.026700
     51 H351        -0.5380     8.5950    -7.3100 hc         1 I01       0.027200
     52 H352         1.1020     9.2020    -7.5320 hc         1 I01       0.027200
     53 H341         0.6480    10.2890    -5.1390 h1         1 I01       0.018700
     54 H342         0.0820    11.0740    -6.6310 h1         1 I01       0.018700
     55 H33         -1.8390    10.9300    -5.6060 hn         1 I01       0.256800
     56 H321        -1.1820    10.4020    -3.5100 h1         1 I01       0.017700
     57 H322        -2.3520     9.1560    -3.9420 h1         1 I01       0.017700
     58 H31          0.6440     8.9550    -3.7800 h1         1 I01       0.069700
     59 H23         -1.2260     7.0030    -2.6040 hn         1 I01       0.186500
     60 H13          0.4210     9.1670     1.0770 ha         1 I01       0.124500
     61 H12         -0.1800     8.0230     3.1780 h4         1 I01      -0.016400
     62 H16         -2.2060     5.0380     1.1170 h4         1 I01      -0.016400
     63 H15         -1.6800     6.0780    -1.0560 ha         1 I01       0.124500
@<TRIPOS>BOND
     1     1     2 1   
     2     2     3 ar  
     3     2    10 ar  
     4     3     4 1   
     5     3     6 ar  
     6     4     5 1   
     7     5    38 1   
     8     5    39 1   
     9     5    40 1   
    10     6     7 ar  
    11     6    41 1   
    12     7     8 ar  
    13     7    42 1   
    14     8     9 1   
    15     8    10 ar  
    16     9    43 1   
    17    10    11 1   
    18    11    12 2   
    19    11    13 1   
    20    13    14 ar  
    21    13    16 ar  
    22    14    15 ar  
    23    14    44 1   
    24    15    18 ar  
    25    15    45 1   
    26    16    17 ar  
    27    16    46 1   
    28    17    18 ar  
    29    17    47 1   
    30    18    19 1   
    31    19    20 2   
    32    19    21 1   
    33    21    22 1   
    34    22    23 1   
    35    22    28 1   
    36    22    48 1   
    37    23    24 1   
    38    23    49 1   
    39    23    50 1   
    40    24    25 1   
    41    24    51 1   
    42    24    52 1   
    43    25    26 1   
    44    25    53 1   
    45    25    54 1   
    46    26    27 1   
    47    26    55 1   
    48    27    28 1   
    49    27    56 1   
    50    27    57 1   
    51    28    29 1   
    52    28    58 1   
    53    29    30 1   
    54    29    59 1   
    55    30    31 2   
    56    30    32 1   
    57    32    33 ar  
    58    32    37 ar  
    59    33    34 ar  
    60    33    60 1   
    61    34    35 ar  
    62    34    61 1   
    63    35    36 ar  
    64    36    37 ar  
    65    36    62 1   
    66    37    63 1   
@<TRIPOS>SUBSTRUCTURE
     1 I01         1 TEMP              0 ****  ****    0 ROOT
