@<TRIPOS>MOLECULE
I02
   71    74     1     0     0
SMALL
bcc


@<TRIPOS>ATOM
      1 C1         -0.0530   -2.5010   -1.4810 ca        1 I02     -0.076500
      2 C2          0.2970   -1.7280   -0.3640 ca        1 I02     -0.216300
      3 C3          0.1460   -2.2500    0.9260 ca        1 I02     -0.076500
      4 C4         -0.3450   -3.5370    1.1090 ca        1 I02     -0.162000
      5 C5         -0.6990   -4.3130   -0.0140 ca        1 I02      0.189900
      6 C6         -0.5530   -3.7860   -1.3150 ca        1 I02     -0.162000
      7 C7          0.8660   -0.3540   -0.5410 c3        1 I02      0.212800
      8 N1         -0.1960    0.5250   -1.1900 n4        1 I02     -0.687800
      9 C8          0.1610    1.9910   -1.1900 c         1 I02      0.569700
     10 C9          0.1500    2.6240   -2.5200 ca        1 I02     -0.170600
     11 C10        -0.3840    3.9040   -2.6860 ca        1 I02     -0.039000
     12 C11        -0.5070    4.4130   -3.9880 ca        1 I02     -0.132500
     13 C12        -0.1940    3.6270   -5.1050 ca        1 I02     -0.051000
     14 C13         0.3380    2.3260   -4.9310 ca        1 I02      0.167600
     15 C14         0.6270    1.9010   -3.6170 ca        1 I02     -0.108000
     16 N2          0.5370    1.4390   -5.9990 nh        1 I02     -0.664900
     17 S1          0.0560   -0.1610   -5.8700 s6        1 I02      1.462900
     18 C15         1.3000   -1.0010   -6.6190 c3        1 I02     -0.391300
     19 C16         0.8810    2.0050   -7.2770 c3        1 I02      0.182100
     20 O1          0.3600    2.5200   -0.1050 o         1 I02     -0.413100
     21 O2         -1.1460   -0.3490   -6.5500 o         1 I02     -0.657800
     22 O3          0.0290   -0.4960   -4.4830 o         1 I02     -0.657800
     23 C17         2.1440   -0.3820   -1.3660 c3        1 I02     -0.130100
     24 F1         -1.1790   -5.5610    0.1540 f         1 I02     -0.100900
     25 C20        -2.1280    8.9140   -2.7900 c3        1 I02      0.152900
     26 N3         -2.4790   10.1050   -3.6670 n4        1 I02     -0.839600
     27 C21        -3.3500    8.4950   -1.9670 c3        1 I02     -0.132100
     28 C22        -0.9430    9.2860   -1.8620 c3        1 I02     -0.045100
     29 C23        -1.3960   13.0730    0.0910 ca        1 I02     -0.088000
     30 C24        -1.8680   11.9130    0.7040 ca        1 I02     -0.108500
     31 C25        -1.7360   10.6790    0.0660 ca        1 I02     -0.136000
     32 C26        -1.1340   10.6000   -1.1950 ca        1 I02     -0.172300
     33 C27        -0.6530   11.7690   -1.8040 ca        1 I02     -0.136000
     34 C28        -0.7850   12.9990   -1.1640 ca        1 I02     -0.108500
     35 N35        -1.6530    7.6680   -5.0220 nc        1 I02     -0.324000
     36 N4         -1.2230    6.4650   -5.3400 nc        1 I02     -0.301000
     37 C29        -0.9950    5.7610   -4.2040 cd        1 I02      0.546900
     38 O4         -1.3030    6.5750   -3.0910 os        1 I02     -0.358800
     39 C30        -1.7150    7.7770   -3.6790 cd        1 I02      0.378700
     40 H1          0.0700   -2.0990   -2.5030 ha        1 I02      0.153000
     41 H3          0.4270   -1.6510    1.8080 ha        1 I02      0.153000
     42 H4         -0.4570   -3.9600    2.1210 ha        1 I02      0.176500
     43 H6         -0.8320   -4.4020   -2.1840 ha        1 I02      0.176500
     44 H7          1.0810    0.1190    0.4670 hx        1 I02      0.114700
     45 HN1        -1.0680    0.3990   -0.6610 hn        1 I02      0.474800
     46 H10        -0.7030    4.4990   -1.8140 ha        1 I02      0.174000
     47 H12        -0.3670    4.0180   -6.1250 ha        1 I02      0.191000
     48 H14         1.2210    0.9810   -3.4510 ha        1 I02      0.179000
     49 H151        1.3630   -2.0530   -6.2230 h1        1 I02      0.146367
     50 H152        2.3310   -0.5840   -6.4930 h1        1 I02      0.146367
     51 H153        1.1510   -1.1180   -7.7260 h1        1 I02      0.146367
     52 H161       -0.0410    2.3320   -7.8340 h1        1 I02      0.066700
     53 H162        1.4220    1.2320   -7.8880 h1        1 I02      0.066700
     54 H163        1.5600    2.8900   -7.1540 h1        1 I02      0.066700
     55 H171        2.5780    0.6410   -1.4760 hc        1 I02      0.078367
     56 H172        1.9700   -0.8280   -2.3770 hc        1 I02      0.078367
     57 H173        2.8860   -1.0240   -0.8270 hc        1 I02      0.078367
     58 HN31       -1.6820   10.3440   -4.2670 hn        1 I02      0.473800
     59 HN32       -2.6830   10.9050   -3.0500 hn        1 I02      0.473800
     60 H211       -3.0980    7.5490   -1.4230 hc        1 I02      0.089367
     61 H212       -3.5970    9.2820   -1.2110 hc        1 I02      0.089367
     62 H213       -4.2400    8.3000   -2.6130 hc        1 I02      0.089367
     63 H221       -0.8570    8.4620   -1.1020 hc        1 I02      0.095700
     64 H222        0.0080    9.2910   -2.4610 hc        1 I02      0.095700
     65 H28        -0.3920   13.9130   -1.6390 ha        1 I02      0.163500
     66 H27        -0.1210   11.7140   -2.7670 ha        1 I02      0.134500
     67 H24        -2.3340   11.9670    1.7020 ha        1 I02      0.163500
     68 H23        -1.4910   14.0460    0.6010 ha        1 I02      0.168000
     69 H121       -0.3480    0.1870   -2.1560 hn        1 I02      0.474800
     70 H33        -3.2940    9.8900   -4.2490 hn        1 I02      0.473800
     71 H25        -2.0890    9.7650    0.5680 ha        1 I02      0.134500
@<TRIPOS>BOND
     1    1    2 ar
     2    1    6 ar
     3    1   40 1
     4    2    3 ar
     5    2    7 1
     6    3    4 ar
     7    3   41 1
     8    4    5 ar
     9    4   42 1
    10    5    6 ar
    11    5   24 1
    12    6   43 1
    13    7    8 1
    14    7   23 1
    15    7   44 1
    16    8    9 1
    17    8   45 1
    18    8   69 1
    19    9   10 1
    20    9   20 2
    21   10   11 ar
    22   10   15 ar
    23   11   12 ar
    24   11   46 1
    25   12   13 ar
    26   12   37 1
    27   13   14 ar
    28   13   47 1
    29   14   15 ar
    30   14   16 1
    31   15   48 1
    32   16   17 1
    33   16   19 1
    34   17   18 1
    35   17   21 2
    36   17   22 2
    37   18   49 1
    38   18   50 1
    39   18   51 1
    40   19   52 1
    41   19   53 1
    42   19   54 1
    43   23   55 1
    44   23   56 1
    45   23   57 1
    46   25   26 1
    47   25   27 1
    48   25   28 1
    49   25   39 1
    50   26   58 1
    51   26   59 1
    52   26   70 1
    53   27   60 1
    54   27   61 1
    55   27   62 1
    56   28   32 1
    57   28   63 1
    58   28   64 1
    59   29   30 ar
    60   29   34 ar
    61   29   68 1
    62   30   31 ar
    63   30   67 1
    64   31   32 ar
    65   31   71 1
    66   32   33 ar
    67   33   34 ar
    68   33   66 1
    69   34   65 1
    70   35   36 1
    71   35   39 2
    72   36   37 2
    73   37   38 1
    74   38   39 1
@<TRIPOS>SUBSTRUCTURE
     1 I02         1 TEMP              0 ****  ****    0 ROOT
