@<TRIPOS>MOLECULE
molecule
   72    74     1     0     0
SMALL
bcc


@<TRIPOS>ATOM
      1 C1           0.0000     0.0000     0.0000 ca         1 I03      -0.089000
      2 C2           1.3830     0.0000     0.0000 ca         1 I03      -0.110300
      3 C3           2.1090     0.0000     1.1790 ca         1 I03      -0.089000
      4 C4           1.4280    -0.0020     2.3970 ca         1 I03      -0.169000
      5 C5           0.0330    -0.0030     2.4160 ca         1 I03       0.143900
      6 C6          -0.6810    -0.0020     1.2170 ca         1 I03      -0.169000
      7 C7           2.1210     0.0020    -1.3210 c3         1 I03       0.155000
      8 N1           1.4100     0.7610    -2.3240 ns         1 I03      -0.589900
      9 C8           1.5760     2.1370    -2.5170 c          1 I03       0.669700
     10 C9           0.7680     2.7610    -3.5520 ca         1 I03      -0.135600
     11 C10         -0.4640     2.2070    -3.9040 ca         1 I03      -0.070000
     12 C11         -1.2130     2.8190    -4.8890 ca         1 I03      -0.147600
     13 C12         -0.7840     3.9590    -5.5370 ca         1 I03      -0.075000
     14 C13          0.4470     4.5120    -5.1850 ca         1 I03       0.114600
     15 C14          1.2230     3.9140    -4.1920 ca         1 I03      -0.001000
     16 N2           0.9130     5.6930    -5.8400 nh         1 I03      -0.628900
     17 S1           0.4530     7.2120    -5.1620 s6         1 I03       1.217900
     18 C15         -1.0730     7.5330    -6.0210 c3         1 I03      -0.263300
     19 C16          1.1060     5.6280    -7.3170 c3         1 I03       0.203100
     20 O1           2.3590     2.8170    -1.8310 o          1 I03      -0.559100
     21 O2           1.3940     8.2340    -5.5820 o          1 I03      -0.574800
     22 O3           0.1340     7.0500    -3.7560 o          1 I03      -0.574800
     23 C17          2.4080    -1.4080    -1.8340 c3         1 I03      -0.100100
     24 F1          -0.6210    -0.0040     3.5850 f          1 I03      -0.130900
     25 C18         -2.5230     2.2300    -5.2620 c          1 I03       0.655700
     26 O4          -3.0890     1.5970    -4.1980 os         1 I03      -0.460900
     27 O5          -3.0020     2.3180    -6.3830 o          1 I03      -0.482000
     28 C19         -4.3530     0.9900    -4.4330 c3         1 I03       0.111400
     29 C20         -4.9140     0.3000    -3.1710 c3         1 I03       0.135200
     30 N3          -5.0150     1.3290    -2.1160 nz         1 I03      -0.814600
     31 C21         -6.3520    -0.1780    -3.4680 c3         1 I03       0.120400
     32 C22         -3.9920    -0.8300    -2.6260 c3         1 I03      -0.037100
     33 C23         -3.4370    -4.2110    -5.1910 ca         1 I03      -0.097000
     34 C24         -2.5700    -3.1210    -5.2760 ca         1 I03      -0.111500
     35 C25         -2.7510    -2.0190    -4.4400 ca         1 I03      -0.120000
     36 C26         -3.7960    -2.0240    -3.5320 ca         1 I03      -0.121300
     37 C27         -4.6650    -3.0970    -3.4350 ca         1 I03      -0.120000
     38 C28         -4.4840    -4.1990    -4.2710 ca         1 I03      -0.111500
     39 O6          -7.1580     0.8880    -3.9550 oh         1 I03      -0.627800
     40 H1          -0.5480     0.0000    -0.9340 ha         1 I03       0.131500
     41 H3           3.1920     0.0000     1.1570 ha         1 I03       0.131500
     42 H4           1.9820    -0.0020     3.3270 ha         1 I03       0.140500
     43 H6          -1.7640    -0.0020     1.2320 ha         1 I03       0.140500
     44 H7           3.0750     0.4900    -1.1590 h1         1 I03       0.086700
     45 HN1          0.7630     0.2750    -2.9140 hn         1 I03       0.301500
     46 H10         -0.8260     1.3130    -3.4120 ha         1 I03       0.136000
     47 H12         -1.3940     4.4170    -6.3070 ha         1 I03       0.160000
     48 H14          2.1790     4.3440    -3.9190 ha         1 I03       0.187000
     49 H151        -0.9080     7.4560    -7.0890 h1         1 I03       0.101700
     50 H152        -1.4200     8.5300    -5.7800 h1         1 I03       0.101700
     51 H153        -1.8180     6.8080    -5.7170 h1         1 I03       0.101700
     52 H161         0.1400     5.5710    -7.8060 h1         1 I03       0.056367
     53 H162         1.6890     4.7510    -7.5680 h1         1 I03       0.056367
     54 H163         1.6280     6.5170    -7.6520 h1         1 I03       0.056367
     55 H171         2.7880    -1.3530    -2.8470 hc         1 I03       0.049033
     56 H172         1.4940    -1.9900    -1.8220 hc         1 I03       0.049033
     57 H173         3.1460    -1.8810    -1.1970 hc         1 I03       0.049033
     58 H191        -5.0530     1.7500    -4.7580 h1         1 I03       0.096200
     59 H192        -4.2460     0.2510    -5.2190 h1         1 I03       0.096200
     60 HN31        -5.5040     0.9530    -1.3280 hn         1 I03       0.458467
     61 HN32        -4.0960     1.6100    -1.8350 hn         1 I03       0.458467
     62 H211        -6.3180    -0.9650    -4.2110 h1         1 I03       0.068700
     63 H212        -6.7910    -0.5670    -2.5580 h1         1 I03       0.068700
     64 H221        -4.4090    -1.1820    -1.6900 hc         1 I03       0.067200
     65 H222        -3.0190    -0.3990    -2.4210 hc         1 I03       0.067200
     66 H28         -5.1570    -5.0450    -4.2050 ha         1 I03       0.151000
     67 H27         -5.4770    -3.0810    -2.7180 ha         1 I03       0.131000
     68 H24         -1.7560    -3.1300    -5.9910 ha         1 I03       0.151000
     69 HO6         -8.0420     0.5830    -4.0760 ho         1 I03       0.454000
     70 H23         -3.2960    -5.0670    -5.8410 ha         1 I03       0.155000
     71 H33         -5.5110     2.1230    -2.4710 hn         1 I03       0.458467
     72 H25         -2.0810    -1.1700    -4.5010 ha         1 I03       0.131000
@<TRIPOS>BOND
     1     1     2 ar
     2     1     6 ar
     3     1    40 1
     4     2     7 1
     5     2     3 ar
     6     3     4 ar
     7     3    41 1
     8     4     5 ar
     9     4    42 1
    10     5     6 ar
    11     5    24 1
    12     6    43 1
    13     7     8 1
    14     7    23 1
    15     7    44 1
    16     8     9 1
    17     8    45 1
    18     9    10 1
    19     9    20 2
    20    10    15 ar
    21    10    11 ar
    22    11    12 ar
    23    11    46 1
    24    12    13 ar
    25    12    25 1
    26    13    14 ar
    27    13    47 1
    28    14    16 1
    29    14    15 ar
    30    15    48 1
    31    16    19 1
    32    16    17 1
    33    17    18 1
    34    17    22 2
    35    17    21 2
    36    18    49 1
    37    18    50 1
    38    18    51 1
    39    19    52 1
    40    19    53 1
    41    19    54 1
    42    23    55 1
    43    23    56 1
    44    23    57 1
    45    25    27 2
    46    25    26 1
    47    26    28 1
    48    28    29 1
    49    28    58 1
    50    28    59 1
    51    29    32 1
    52    29    31 1
    53    29    30 1
    54    30    60 1
    55    30    61 1
    56    31    39 1
    57    31    62 1
    58    31    63 1
    59    32    36 1
    60    32    64 1
    61    32    65 1
    62    33    38 ar
    63    33    34 ar
    64    33    70 1
    65    34    35 ar
    66    34    68 1
    67    35    36 ar
    68    35    72 1
    69    36    37 ar
    70    37    38 ar
    71    37    67 1
    72    38    66 1
    73    39    69 1
    74    71    30 1
@<TRIPOS>SUBSTRUCTURE
     1 I03         1 TEMP              0 ****  ****    0 ROOT
