@<TRIPOS>MOLECULE
I04
   64    67     1     0     0
SMALL
bcc


@<TRIPOS>ATOM
      1 F96          0.0000     0.0000     0.0000 f          1 I04      -0.112900
      2 C76          1.3510     0.0000     0.0000 ca         1 I04       0.126900
      3 C75          2.0460     0.0000     1.1980 ca         1 I04       0.083100
      4 O95          1.3650    -0.0060     2.3760 os         1 I04      -0.264900
      5 C98          2.3440    -0.0100     3.4180 c3         1 I04       0.215700
      6 C74          3.4340     0.0010     1.2000 ca         1 I04      -0.159000
      7 C73          4.1350     0.0070     0.0100 ca         1 I04      -0.137000
      8 C72          3.4570     0.0130    -1.1990 ca         1 I04       0.151100
      9 O92          4.1480     0.0180    -2.3670 oh         1 I04      -0.488100
     10 C71          2.0540     0.0120    -1.2120 ca         1 I04      -0.191600
     11 C61          1.3250     0.0190    -2.4910 c          1 I04       0.666300
     12 O62          1.0500    -1.0310    -3.0390 o          1 I04      -0.535100
     13 C54          0.9250     1.3030    -3.1090 ca         1 I04      -0.153600
     14 C55          0.1410     1.3080    -4.2630 ca         1 I04      -0.054000
     15 C56         -0.2320     2.5040    -4.8380 ca         1 I04      -0.078500
     16 C53          1.3280     2.5090    -2.5320 ca         1 I04      -0.054000
     17 C52          0.9610     3.7050    -3.1110 ca         1 I04      -0.078500
     18 C51          0.1760     3.7100    -4.2660 ca         1 I04      -0.133600
     19 C42         -0.2230     4.9940    -4.8830 c          1 I04       0.594700
     20 O43         -0.9060     4.9990    -5.8880 o          1 I04      -0.635100
     21 N41          0.1710     6.1590    -4.3310 ns         1 I04      -0.212900
     22 C37         -0.2250     7.4310    -4.9420 c3         1 I04       0.008700
     23 C36          0.7840     7.8040    -6.0670 c3         1 I04      -0.032400
     24 C35          0.2450     8.8950    -6.8680 c3         1 I04      -0.035400
     25 C34         -0.0060    10.1830    -6.0750 c3         1 I04       0.124800
     26 N33         -1.3400    10.0880    -5.5310 n7         1 I04      -0.564200
     27 C32         -1.2470     9.6330    -4.1290 c3         1 I04       0.128800
     28 C31         -0.2160     8.5170    -3.8990 c3         1 I04       0.000700
     29 N23         -0.4750     7.9080    -2.5920 ns         1 I04      -0.203900
     30 C21          0.0450     8.4570    -1.4780 c          1 I04       0.595700
     31 O22          0.7310     9.4580    -1.5560 o          1 I04      -0.642100
     32 C14         -0.2160     7.8410    -0.1560 ca         1 I04      -0.129600
     33 C13          0.3140     8.3950     1.0140 ca         1 I04      -0.182800
     34 C12          0.0450     7.7880     2.2250 ca         1 I04       0.398200
     35 N11         -0.7010     6.7030     2.2860 nb         1 I04      -0.563000
     36 C16         -1.2200     6.1480     1.2090 ca         1 I04       0.398200
     37 C15         -1.0060     6.6930    -0.0420 ca         1 I04      -0.182800
     38 H981         1.8470    -0.0160     4.3810 h1         1 I04       0.004700
     39 H982         2.9630     0.8750     3.3360 h1         1 I04       0.004700
     40 H983         2.9640    -0.8940     3.3270 h1         1 I04       0.004700
     41 H74          3.9700    -0.0010     2.1410 ha         1 I04       0.140000
     42 H73          5.2180     0.0080     0.0210 ha         1 I04       0.118000
     43 H92          4.7080    -0.7390    -2.4040 ho         1 I04       0.413000
     44 H55         -0.1760     0.3720    -4.7080 ha         1 I04       0.121000
     45 H56         -0.8400     2.5080    -5.7340 ha         1 I04       0.118000
     46 H53          1.9370     2.5050    -1.6360 ha         1 I04       0.121000
     47 H52          1.2750     4.6420    -2.6660 ha         1 I04       0.118000
     48 H41          0.7790     6.1540    -3.5350 hn         1 I04       0.184500
     49 H37         -1.2190     7.3430    -5.3630 h1         1 I04       0.080700
     50 H361         1.7210     8.1150    -5.6210 hc         1 I04       0.024700
     51 H362         0.9490     6.9410    -6.7010 hc         1 I04       0.024700
     52 H351         0.9450     9.1140    -7.6660 hc         1 I04       0.027700
     53 H352        -0.6920     8.5720    -7.3030 hc         1 I04       0.027700
     54 H341         0.7150    10.2670    -5.2710 h1         1 I04       0.017200
     55 H342         0.0640    11.0400    -6.7340 h1         1 I04       0.017200
     56 H33         -1.7770    10.9880    -5.5620 hn         1 I04       0.255800
     57 H321        -0.9790    10.4810    -3.5100 h1         1 I04       0.016700
     58 H322        -2.2200     9.2700    -3.8210 h1         1 I04       0.016700
     59 H31          0.7710     8.9640    -3.8840 h1         1 I04       0.067700
     60 H23         -1.0770     7.1120    -2.5220 hn         1 I04       0.190500
     61 H13          0.9280     9.2860     0.9710 ha         1 I04       0.124500
     62 H12          0.4510     8.2090     3.1360 h4         1 I04      -0.014900
     63 H16         -1.8290     5.2580     1.3080 h4         1 I04      -0.014900
     64 H15         -1.4360     6.2320    -0.9230 ha         1 I04       0.124500
@<TRIPOS>BOND
     1     1     2 1   
     2     2     3 ar  
     3     2    10 ar  
     4     3     4 1   
     5     3     6 ar  
     6     4     5 1   
     7     5    38 1   
     8     5    39 1   
     9     5    40 1   
    10     6     7 ar  
    11     6    41 1   
    12     7     8 ar  
    13     7    42 1   
    14     8     9 1   
    15     8    10 ar  
    16     9    43 1   
    17    10    11 1   
    18    11    12 2   
    19    11    13 1   
    20    13    14 ar  
    21    13    16 ar  
    22    14    15 ar  
    23    14    44 1   
    24    15    18 ar  
    25    15    45 1   
    26    16    17 ar  
    27    16    46 1   
    28    17    18 ar  
    29    17    47 1   
    30    18    19 1   
    31    19    20 2   
    32    19    21 1   
    33    21    22 1   
    34    21    48 1   
    35    22    23 1   
    36    22    28 1   
    37    22    49 1   
    38    23    24 1   
    39    23    50 1   
    40    23    51 1   
    41    24    25 1   
    42    24    52 1   
    43    24    53 1   
    44    25    26 1   
    45    25    54 1   
    46    25    55 1   
    47    26    27 1   
    48    26    56 1   
    49    27    28 1   
    50    27    57 1   
    51    27    58 1   
    52    28    29 1   
    53    28    59 1   
    54    29    30 1   
    55    29    60 1   
    56    30    31 2   
    57    30    32 1   
    58    32    33 ar  
    59    32    37 ar  
    60    33    34 ar  
    61    33    61 1   
    62    34    35 ar  
    63    34    62 1   
    64    35    36 ar  
    65    36    37 ar  
    66    36    63 1   
    67    37    64 1   
@<TRIPOS>SUBSTRUCTURE
     1 I04         1 TEMP              0 ****  ****    0 ROOT
