@<TRIPOS>MOLECULE
I05
   64    67     1     0     0
SMALL
bcc


@<TRIPOS>ATOM
      1 F96          0.0000     0.0000     0.0000 f          1 I05      -0.110900
      2 C76          1.3500     0.0000     0.0000 ca         1 I05       0.129900
      3 C75          2.0450     0.0000     1.1980 ca         1 I05       0.082100
      4 O95          1.3660    -0.0050     2.3770 os         1 I05      -0.264900
      5 C97          2.3450    -0.0100     3.4180 c3         1 I05       0.215700
      6 C74          3.4340    -0.0010     1.2000 ca         1 I05      -0.161000
      7 C73          4.1350     0.0040     0.0090 ca         1 I05      -0.139000
      8 C72          3.4570     0.0110    -1.1990 ca         1 I05       0.151100
      9 O92          4.1470     0.0150    -2.3670 oh         1 I05      -0.488100
     10 C71          2.0530     0.0110    -1.2110 ca         1 I05      -0.189600
     11 C61          1.3230     0.0170    -2.4900 c          1 I05       0.670300
     12 O62          1.0480    -1.0320    -3.0390 o          1 I05      -0.542100
     13 C54          0.9260     1.3010    -3.1080 ca         1 I05      -0.169600
     14 C55          0.1410     1.3090    -4.2630 ca         1 I05      -0.046000
     15 C56         -0.2270     2.5100    -4.8330 ca         1 I05      -0.098000
     16 C53          1.3280     2.5090    -2.5360 ca         1 I05      -0.046000
     17 C52          0.9590     3.7030    -3.1200 ca         1 I05      -0.098000
     18 C51          0.1810     3.7040    -4.2650 ca         1 I05      -0.081300
     19 C42         -0.2250     5.0120    -4.8940 c3         1 I05       0.248700
     20 O41         -1.4660     5.4440    -4.3350 os         1 I05      -0.387600
     21 C37         -1.7950     6.6820    -4.9690 c3         1 I05       0.150100
     22 C36         -1.1980     7.8630    -4.1500 c3         1 I05      -0.046400
     23 C35         -1.2700     9.0910    -4.9310 c3         1 I05      -0.034400
     24 C34         -2.6980     9.5090    -5.3000 c3         1 I05       0.125800
     25 N33         -3.0220     8.8460    -6.5400 n7         1 I05      -0.572200
     26 C32         -3.8080     7.6320    -6.2380 c3         1 I05       0.124800
     27 C31         -3.2930     6.8380    -5.0260 c3         1 I05       0.000700
     28 N23         -3.8970     5.5040    -5.0540 ns         1 I05      -0.169900
     29 C21         -5.1180     5.3060    -4.5170 c          1 I05       0.595700
     30 O22         -5.7160     6.2340    -4.0100 o          1 I05      -0.653100
     31 C14         -5.7300     3.9570    -4.5450 ca         1 I05      -0.121600
     32 C13         -6.9940     3.7300    -3.9930 ca         1 I05      -0.181800
     33 C12         -7.5270     2.4560    -4.0410 ca         1 I05       0.395700
     34 N11         -6.8590     1.4640    -4.5960 nb         1 I05      -0.566000
     35 C16         -5.6650     1.6340    -5.1280 ca         1 I05       0.395700
     36 C15         -5.0600     2.8760    -5.1290 ca         1 I05      -0.181800
     37 H971         1.8480    -0.0150     4.3810 h1         1 I05       0.004033
     38 H972         2.9640    -0.8940     3.3280 h1         1 I05       0.004033
     39 H973         2.9640     0.8750     3.3360 h1         1 I05       0.004033
     40 H74          3.9710    -0.0030     2.1410 ha         1 I05       0.139000
     41 H73          5.2180     0.0030     0.0200 ha         1 I05       0.117000
     42 H92          4.7070    -0.7430    -2.4050 ho         1 I05       0.411000
     43 H55         -0.1800     0.3760    -4.7090 ha         1 I05       0.117500
     44 H56         -0.8360     2.5190    -5.7290 ha         1 I05       0.107500
     45 H53          1.9370     2.5090    -1.6400 ha         1 I05       0.117500
     46 H52          1.2730     4.6410    -2.6790 ha         1 I05       0.107500
     47 H421         0.5370     5.7580    -4.7010 h1         1 I05       0.001700
     48 H422        -0.3370     4.8790    -5.9630 h1         1 I05       0.001700
     49 H37         -1.3910     6.6990    -5.9740 h1         1 I05       0.033700
     50 H361        -0.1630     7.6480    -3.9140 hc         1 I05       0.026200
     51 H362        -1.7640     7.9860    -3.2340 hc         1 I05       0.026200
     52 H351        -0.7060     8.9500    -5.8440 hc         1 I05       0.021700
     53 H352        -0.8160     9.8890    -4.3570 hc         1 I05       0.021700
     54 H341        -2.7440    10.5830    -5.4330 h1         1 I05       0.019700
     55 H342        -3.3860     9.1960    -4.5240 h1         1 I05       0.019700
     56 H33         -3.5650     9.4600    -7.1150 hn         1 I05       0.255800
     57 H321        -4.8320     7.9250    -6.0460 h1         1 I05       0.016700
     58 H322        -3.7860     6.9850    -7.1070 h1         1 I05       0.016700
     59 H31         -3.6150     7.3460    -4.1260 h1         1 I05       0.070700
     60 H23         -3.4230     4.7500    -5.5090 hn         1 I05       0.187500
     61 H13         -7.5480     4.5400    -3.5350 ha         1 I05       0.123500
     62 H12         -8.5060     2.2700    -3.6160 h4         1 I05      -0.017900
     63 H16         -5.1540     0.7910    -5.5760 h4         1 I05      -0.017900
     64 H15         -4.0790     3.0100    -5.5670 ha         1 I05       0.123500
@<TRIPOS>BOND
     1     1     2 1   
     2     2     3 ar  
     3     2    10 ar  
     4     3     4 1   
     5     3     6 ar  
     6     4     5 1   
     7     5    37 1   
     8     5    38 1   
     9     5    39 1   
    10     6     7 ar  
    11     6    40 1   
    12     7     8 ar  
    13     7    41 1   
    14     8     9 1   
    15     8    10 ar  
    16     9    42 1   
    17    10    11 1   
    18    11    12 2   
    19    11    13 1   
    20    13    14 ar  
    21    13    16 ar  
    22    14    15 ar  
    23    14    43 1   
    24    15    18 ar  
    25    15    44 1   
    26    16    17 ar  
    27    16    45 1   
    28    17    18 ar  
    29    17    46 1   
    30    18    19 1   
    31    19    20 1   
    32    19    47 1   
    33    19    48 1   
    34    20    21 1   
    35    21    22 1   
    36    21    27 1   
    37    21    49 1   
    38    22    23 1   
    39    22    50 1   
    40    22    51 1   
    41    23    24 1   
    42    23    52 1   
    43    23    53 1   
    44    24    25 1   
    45    24    54 1   
    46    24    55 1   
    47    25    26 1   
    48    25    56 1   
    49    26    27 1   
    50    26    57 1   
    51    26    58 1   
    52    27    28 1   
    53    27    59 1   
    54    28    29 1   
    55    28    60 1   
    56    29    30 2   
    57    29    31 1   
    58    31    32 ar  
    59    31    36 ar  
    60    32    33 ar  
    61    32    61 1   
    62    33    34 ar  
    63    33    62 1   
    64    34    35 ar  
    65    35    36 ar  
    66    35    63 1   
    67    36    64 1   
@<TRIPOS>SUBSTRUCTURE
     1 I05         1 TEMP              0 ****  ****    0 ROOT
