@<TRIPOS>MOLECULE
I06
   34    36     1     0     0
SMALL
bcc


@<TRIPOS>ATOM
      1 C7          0.0390   -0.2480   -0.0370 ca        1 I06     -0.115000
      2 C8          1.4310   -0.1470   -0.0260 ca        1 I06     -0.081000
      3 C9          2.1030   -0.0130    1.1910 ca        1 I06     -0.110600
      4 C10         1.3780    0.0170    2.3930 ca        1 I06     -0.109600
      5 C11        -0.0150   -0.0830    2.3770 ca        1 I06     -0.081000
      6 C12        -0.6800   -0.2160    1.1580 ca        1 I06     -0.115000
      7 C13         3.5830    0.0900    1.2160 c         1 I06      0.687100
      8 O13         4.2710    0.0360    0.1810 o         1 I06     -0.606500
      9 N14         4.2070    0.3870    2.4680 n         1 I06     -0.314400
     10 N15         3.5240    0.0600    3.6250 n         1 I06     -0.396500
     11 C16         2.1100    0.1660    3.6700 c         1 I06      0.682100
     12 O16         1.5610    0.2780    4.7790 o         1 I06     -0.603500
     13 CA          5.6600    0.1530    2.5230 c3        1 I06      0.069000
     14 CB          6.1000   -1.3040    2.6640 c3        1 I06     -0.062100
     15 CG          7.5850   -1.3990    2.6250 ca        1 I06     -0.086300
     16 CD1         8.3100   -1.6870    3.7870 ca        1 I06     -0.125000
     17 CD2         8.2680   -1.2140    1.4170 ca        1 I06     -0.125000
     18 CE1         9.7000   -1.7860    3.7400 ca        1 I06     -0.128500
     19 CE2         9.6570   -1.3130    1.3730 ca        1 I06     -0.128500
     20 CZ         10.3750   -1.5990    2.5340 ca        1 I06     -0.129000
     21 H71        -0.4920   -0.3530   -0.9960 ha        1 I06      0.144000
     22 H81         2.0100   -0.1690   -0.9640 ha        1 I06      0.165000
     23 H111       -0.5700   -0.0560    3.3290 ha        1 I06      0.164000
     24 H121       -1.7780   -0.2960    1.1420 ha        1 I06      0.144000
     25 H15         3.9810    0.4750    4.4260 hn        1 I06      0.313500
     26 HA1         6.0730    0.7540    3.3820 h1        1 I06      0.077700
     27 HA2         6.0770    0.5780    1.5650 h1        1 I06      0.077700
     28 HB1         5.7090   -1.7350    3.6240 hc        1 I06      0.062200
     29 HB2         5.6660   -1.9060    1.8210 hc        1 I06      0.062200
     30 HD11        7.7820   -1.8390    4.7400 ha        1 I06      0.135500
     31 HD21        7.7000   -0.9920    0.5000 ha        1 I06      0.135500
     32 HE11       10.2640   -2.0140    4.6560 ha        1 I06      0.132500
     33 HE21       10.1870   -1.1670    0.4200 ha        1 I06      0.132500
     34 HZ1        11.4720   -1.6780    2.4980 ha        1 I06      0.132000
@<TRIPOS>BOND
     1    1    2 ar  
     2    1    6 ar  
     3    1   21 1   
     4    2    3 ar  
     5    2   22 1   
     6    3    4 ar  
     7    3    7 1   
     8    4    5 ar  
     9    4   11 1   
    10    5    6 ar  
    11    5   23 1   
    12    6   24 1   
    13    7    8 2   
    14    7    9 1   
    15    9   10 1   
    16    9   13 1   
    17   10   11 1   
    18   10   25 1   
    19   11   12 2   
    20   13   14 1   
    21   13   26 1   
    22   13   27 1   
    23   14   15 1   
    24   14   28 1   
    25   14   29 1   
    26   15   16 ar  
    27   15   17 ar  
    28   16   18 ar  
    29   16   30 1   
    30   17   19 ar  
    31   17   31 1   
    32   18   20 ar  
    33   18   32 1   
    34   19   20 ar  
    35   19   33 1   
    36   20   34 1   
@<TRIPOS>SUBSTRUCTURE
     1 I06         1 TEMP              0 ****  ****    0 ROOT
