@<TRIPOS>MOLECULE
molecule
   64    67     1     0     0
SMALL
bcc


@<TRIPOS>ATOM
      1 F96          0.0000     0.0000     0.0000 f          1 I08      -0.115900
      2 C76          1.3510     0.0000     0.0000 ca         1 I08       0.154900
      3 C75          2.0460     0.0000     1.1970 ca         1 I08       0.066100
      4 O95          1.3670    -0.0060     2.3770 os         1 I08      -0.280900
      5 C98          2.3460    -0.0110     3.4170 c3         1 I08       0.103700
      6 C74          3.4340    -0.0000     1.1990 ca         1 I08      -0.170000
      7 C73          4.1350     0.0050     0.0080 ca         1 I08      -0.162000
      8 C72          3.4560     0.0100    -1.1990 ca         1 I08       0.132100
      9 O92          4.1460     0.0150    -2.3680 oh         1 I08      -0.505100
     10 C71          2.0530     0.0110    -1.2120 ca         1 I08      -0.183600
     11 C61          1.3230     0.0170    -2.4910 c          1 I08       0.611300
     12 O62          1.0480    -1.0330    -3.0390 o          1 I08      -0.507100
     13 C54          0.9240     1.2980    -3.1080 ca         1 I08      -0.168600
     14 C55          0.1380     1.3030    -4.2640 ca         1 I08      -0.069000
     15 C56         -0.2320     2.4930    -4.8370 ca         1 I08      -0.140000
     16 C53          1.3280     2.5070    -2.5330 ca         1 I08      -0.069000
     17 C52          0.9650     3.6950    -3.1100 ca         1 I08      -0.140000
     18 C51          0.1790     3.7000    -4.2640 ca         1 I08      -0.029800
     19 C42         -0.2200     4.9810    -4.8820 ce         1 I08      -0.140200
     20 C41          0.1690     6.1280    -4.3390 c2         1 I08      -0.147200
     21 C37         -0.2380     7.4360    -4.9680 c3         1 I08      -0.048500
     22 C36          1.0340     8.2380    -5.3710 c3         1 I08      -0.063400
     23 C35          0.6610     9.3500    -6.2350 c3         1 I08      -0.083400
     24 C34         -0.2880    10.3570    -5.5760 c3         1 I08       0.143800
     25 N33         -1.6310     9.8850    -5.8110 n7         1 I08      -0.806200
     26 C32         -2.0960     9.1610    -4.6100 c3         1 I08       0.133800
     27 C31         -1.0320     8.2460    -3.9790 c3         1 I08       0.122700
     28 N23         -1.7010     7.3270    -3.0550 ns         1 I08      -0.575900
     29 C21         -1.9520     7.7100    -1.7880 c          1 I08       0.670700
     30 O22         -1.6260     8.8190    -1.4120 o          1 I08      -0.608100
     31 C14         -2.6280     6.7810    -0.8530 ca         1 I08      -0.111600
     32 C13         -2.8990     7.1580     0.4650 ca         1 I08      -0.216300
     33 C12         -3.5300     6.2590     1.3030 ca         1 I08       0.415200
     34 N11         -3.8750     5.0610     0.8740 nb         1 I08      -0.675000
     35 C16         -3.6390     4.6650    -0.3600 ca         1 I08       0.415200
     36 C15         -3.0170     5.5020    -1.2670 ca         1 I08      -0.216300
     37 H981         2.9660    -0.8940     3.3260 h1         1 I08       0.046700
     38 H982         1.8500    -0.0160     4.3800 h1         1 I08       0.046700
     39 H983         2.9650     0.8750     3.3350 h1         1 I08       0.046700
     40 H74          3.9710    -0.0030     2.1400 ha         1 I08       0.154000
     41 H73          5.2180     0.0040     0.0190 ha         1 I08       0.145000
     42 H92          4.7060    -0.7430    -2.4060 ho         1 I08       0.429000
     43 H55         -0.1790     0.3660    -4.7070 ha         1 I08       0.147000
     44 H56         -0.8410     2.4970    -5.7320 ha         1 I08       0.137500
     45 H53          1.9380     2.5030    -1.6370 ha         1 I08       0.147000
     46 H52          1.2800     4.6310    -2.6650 ha         1 I08       0.137500
     47 H42         -0.8300     4.9840    -5.7770 ha         1 I08       0.135000
     48 H41          0.7790     6.1250    -3.4430 ha         1 I08       0.137000
     49 H37         -0.8410     7.2480    -5.8490 hc         1 I08       0.075700
     50 H361         1.5130     8.6220    -4.4790 hc         1 I08       0.047700
     51 H362         1.7170     7.5850    -5.9010 hc         1 I08       0.047700
     52 H351         0.1780     8.9520    -7.1200 hc         1 I08       0.049700
     53 H352         1.5630     9.8720    -6.5330 hc         1 I08       0.049700
     54 H341        -0.1570    11.3350    -6.0240 h1         1 I08       0.039200
     55 H342        -0.0940    10.4030    -4.5110 h1         1 I08       0.039200
     56 H33         -2.2340    10.6650    -5.9840 hn         1 I08       0.356800
     57 H321        -2.4060     9.8880    -3.8690 h1         1 I08       0.044200
     58 H322        -2.9500     8.5540    -4.8840 h1         1 I08       0.044200
     59 H31         -0.3440     8.8650    -3.4160 h1         1 I08       0.081700
     60 H23         -2.0240     6.4370    -3.3810 hn         1 I08       0.323500
     61 H13         -2.6180     8.1400     0.8250 ha         1 I08       0.149500
     62 H12         -3.7440     6.5430     2.3260 h4         1 I08       0.029100
     63 H16         -3.9420     3.6720    -0.6700 h4         1 I08       0.029100
     64 H15         -2.8260     5.1700    -2.2800 ha         1 I08       0.149500
@<TRIPOS>BOND
     1     1     2 1
     2     2     3 ar
     3     2    10 ar
     4     3     4 1
     5     3     6 ar
     6     4     5 1
     7     5    37 1
     8     5    38 1
     9     5    39 1
    10     6     7 ar
    11     6    40 1
    12     7     8 ar
    13     7    41 1
    14     8     9 1
    15     8    10 ar
    16     9    42 1
    17    10    11 1
    18    11    12 2
    19    11    13 1
    20    13    14 ar
    21    13    16 ar
    22    14    15 ar
    23    14    43 1
    24    15    18 ar
    25    15    44 1
    26    16    17 ar
    27    16    45 1
    28    17    18 ar
    29    17    46 1
    30    18    19 1
    31    19    20 2
    32    19    47 1
    33    20    21 1
    34    20    48 1
    35    21    22 1
    36    21    27 1
    37    21    49 1
    38    22    23 1
    39    22    50 1
    40    22    51 1
    41    23    24 1
    42    23    52 1
    43    23    53 1
    44    24    25 1
    45    24    54 1
    46    24    55 1
    47    25    26 1
    48    25    56 1
    49    26    27 1
    50    26    57 1
    51    26    58 1
    52    27    28 1
    53    27    59 1
    54    28    29 1
    55    28    60 1
    56    29    30 2
    57    29    31 1
    58    31    32 ar
    59    31    36 ar
    60    32    33 ar
    61    32    61 1
    62    33    34 ar
    63    33    62 1
    64    34    35 ar
    65    35    36 ar
    66    35    63 1
    67    36    64 1
@<TRIPOS>SUBSTRUCTURE
     1 I08         1 TEMP              0 ****  ****    0 ROOT
