@<TRIPOS>MOLECULE
molecule
   68    70     1     0     0
SMALL
bcc


@<TRIPOS>ATOM
      1 C1           0.0000     0.0000     0.0000 c3         1 I09       0.074500
      2 C10         -0.5250    -1.3880     0.2620 c          1 I09       0.667100
      3 N11         -1.8160    -1.6790     0.0070 ns         1 I09      -0.589900
      4 C12         -2.3270    -3.0280     0.2610 c3         1 I09       0.114000
      5 C13         -3.8100    -3.0910    -0.1100 c3         1 I09      -0.103400
      6 C14         -4.3440    -4.5000     0.1550 c3         1 I09       0.156100
      7 O14         -3.6950    -5.4280    -0.7170 oh         1 I09      -0.599800
      8 C15         -5.8520    -4.5300    -0.0970 c3         1 I09       0.118400
      9 O15         -6.3700    -5.8130     0.2620 oh         1 I09      -0.611800
     10 O10          0.2130    -2.2430     0.7030 o          1 I09      -0.590100
     11 N1           1.4850     0.0000     0.0000 n7         1 I09      -0.754200
     12 C2          -0.3890     0.9500     1.1530 c3         1 I09      -0.040400
     13 C21         -0.6410     2.3390     0.6260 ca         1 I09      -0.089300
     14 C26          0.3560     3.0090    -0.0600 ca         1 I09      -0.124000
     15 C25          0.1250     4.2830    -0.5440 ca         1 I09      -0.105000
     16 C22         -1.8700     2.9400     0.8220 ca         1 I09      -0.112000
     17 C23         -2.1020     4.2150     0.3360 ca         1 I09       0.031400
     18 Cl2         -3.6450     4.9700     0.5820 cl         1 I09      -0.103400
     19 C24         -1.1020     4.8880    -0.3440 ca         1 I09      -0.114000
     20 C3           0.8280     0.9500     2.1010 c3         1 I09       0.023400
     21 C37          1.3890     2.3060     2.2130 c1         1 I09       0.233700
     22 N37          1.8350     3.3470     2.3130 n1         1 I09      -0.371800
     23 C31          0.4340     0.4340     3.4610 ca         1 I09      -0.081300
     24 C32          0.7210     1.1750     4.5910 ca         1 I09      -0.111500
     25 C33          0.3540     0.7050     5.8380 ca         1 I09      -0.118500
     26 C36         -0.2200    -0.7800     3.5760 ca         1 I09      -0.111500
     27 C35         -0.5820    -1.2530     4.8230 ca         1 I09      -0.118500
     28 C34         -0.3000    -0.5090     5.9550 ca         1 I09       0.031400
     29 Cl3         -0.7600    -1.1000     7.5200 cl         1 I09      -0.105400
     30 C4           1.8510     0.0000     1.4400 c3         1 I09       0.161500
     31 C41          3.2730     0.5310     1.6300 c3         1 I09      -0.076400
     32 C42          4.2710    -0.4490     1.0090 c3         1 I09      -0.062000
     33 C45          4.0690    -0.4880    -0.5080 c3         1 I09      -0.087767
     34 C44          5.6970     0.0080     1.3220 c3         1 I09      -0.087767
     35 C43          4.0430    -1.8460     1.5900 c3         1 I09      -0.087767
     36 H1          -0.3750     0.3800    -0.9420 h1         1 I09       0.084700
     37 H2          -2.4210    -0.9780    -0.3730 hn         1 I09       0.314500
     38 H3          -2.2080    -3.2680     1.3110 h1         1 I09       0.060700
     39 H4          -1.7750    -3.7420    -0.3370 h1         1 I09       0.060700
     40 H5          -4.3620    -2.3770     0.4890 hc         1 I09       0.055700
     41 H6          -3.9290    -2.8510    -1.1600 hc         1 I09       0.055700
     42 H7          -4.1450    -4.7730     1.1850 h1         1 I09       0.045700
     43 H8          -3.5200    -6.2280    -0.2500 ho         1 I09       0.415000
     44 H9          -6.0460    -4.3430    -1.1470 h1         1 I09       0.030200
     45 H10         -6.3340    -3.7660     0.5010 h1         1 I09       0.030200
     46 H11         -7.3090    -5.8100     0.1690 ho         1 I09       0.407000
     47 H12          1.8190     0.8400    -0.4290 hn         1 I09       0.359800
     48 H14         -1.2640     0.5730     1.6690 hc         1 I09       0.083700
     49 H15          1.3170     2.5360    -0.2160 ha         1 I09       0.135000
     50 H16          0.9060     4.8090    -1.0790 ha         1 I09       0.144000
     51 H17         -2.6640     2.3980     1.3220 ha         1 I09       0.144000
     52 H18         -1.2830     5.8860    -0.7250 ha         1 I09       0.148000
     53 H19          1.2330     2.1250     4.5000 ha         1 I09       0.152000
     54 H20          0.5770     1.2870     6.7240 ha         1 I09       0.147500
     55 H21         -0.4410    -1.3620     2.6900 ha         1 I09       0.152000
     56 H22         -1.0950    -2.2030     4.9140 ha         1 I09       0.147500
     57 H23          1.7570    -0.9980     1.8510 h1         1 I09       0.122700
     58 H24          3.3660     1.4960     1.1460 hc         1 I09       0.051200
     59 H25          3.4810     0.6370     2.6880 hc         1 I09       0.051200
     60 H26          4.9290    -0.9550    -0.9740 hc         1 I09       0.038478
     61 H27          3.1780    -1.0590    -0.7390 hc         1 I09       0.038478
     62 H28          3.9590     0.5220    -0.8840 hc         1 I09       0.038478
     63 H29          5.8380     0.0410     2.3960 hc         1 I09       0.038478
     64 H30          5.8610     0.9940     0.9060 hc         1 I09       0.038478
     65 H31          6.4030    -0.6900     0.8870 hc         1 I09       0.038478
     66 H32          4.9280    -2.4500     1.4350 hc         1 I09       0.038478
     67 H33          3.1980    -2.3090     1.0940 hc         1 I09       0.038478
     68 H34          3.8400    -1.7670     2.6510 hc         1 I09       0.038478
@<TRIPOS>BOND
     1    34    32 1
     2    35    32 1
     3    32    33 1
     4    32    31 1
     5    31    30 1
     6    29    28 1
     7    25    28 ar
     8    25    24 ar
     9    30    11 1
    10    30    20 1
    11    28    27 ar
    12    24    23 ar
    13     7     6 1
    14    11     1 1
    15    27    26 ar
    16     4     3 1
    17     4     5 1
    18    23    26 ar
    19    23    20 1
    20     3     2 1
    21    20    21 1
    22    20    12 1
    23     6     5 1
    24     6     8 1
    25     1     2 1
    26     1    12 1
    27     2    10 2
    28    21    22 3
    29    12    13 1
    30     9     8 1
    31    13    16 ar
    32    13    14 ar
    33    16    17 ar
    34    14    15 ar
    35    17    18 1
    36    17    19 ar
    37    15    19 ar
    38     1    36 1
    39     3    37 1
    40     4    38 1
    41     4    39 1
    42     5    40 1
    43     5    41 1
    44     6    42 1
    45     7    43 1
    46     8    44 1
    47     8    45 1
    48     9    46 1
    49    11    47 1
    50    12    48 1
    51    14    49 1
    52    15    50 1
    53    16    51 1
    54    19    52 1
    55    24    53 1
    56    25    54 1
    57    26    55 1
    58    27    56 1
    59    30    57 1
    60    31    58 1
    61    31    59 1
    62    33    60 1
    63    33    61 1
    64    33    62 1
    65    34    63 1
    66    34    64 1
    67    34    65 1
    68    35    66 1
    69    35    67 1
    70    35    68 1
@<TRIPOS>SUBSTRUCTURE
     1 I09         1 TEMP              0 ****  ****    0 ROOT
