@<TRIPOS>MOLECULE
I0D
   38    40     1     0     0
SMALL
bcc


@<TRIPOS>ATOM
      1 C13          0.0000     0.0000     0.0000 ca         1 I0D      -0.040300
      2 C17          1.3880     0.0000     0.0000 ca         1 I0D      -0.141000
      3 C21          1.4100    -0.0000     2.3900 ca         1 I0D      -0.175000
      4 C26          0.0250    -0.1370     4.8030 cc         1 I0D      -0.080600
      5 N05         -2.1150     0.3990    -1.1550 n3         1 I0D      -0.544600
      6 C06         -2.7600    -0.4080    -0.1070 c3         1 I0D       0.152800
      7 C09         -2.1900     0.0100     1.2470 c3         1 I0D       0.034900
      8 C12         -0.6830     0.0030     1.1960 ca         1 I0D      -0.129300
      9 C14         -0.7170    -0.0110    -1.3250 c3         1 I0D       0.212100
     10 C19          2.0890     0.0000     1.1890 ca         1 I0D      -0.056000
     11 C23          0.0220     0.0020     2.3980 ca         1 I0D       0.034600
     12 N24         -0.6690     0.0020     3.6120 nu         1 I0D      -0.242400
     13 C27          0.7970    -1.2930     5.0460 cc         1 I0D       0.404500
     14 N29          1.4540    -1.4240     6.1650 nd         1 I0D      -0.505300
     15 N30          1.4120    -0.4300     7.1470 n          1 I0D       0.160200
     16 C31          2.1620    -0.6070     8.3920 c3         1 I0D       0.093300
     17 C35          0.6870     0.6910     6.9560 c          1 I0D       0.589700
     18 O36          0.6550     1.5550     7.8190 o          1 I0D      -0.676500
     19 C37         -0.0300     0.8580     5.7620 cd         1 I0D      -0.176800
     20 Cl3         -0.9660     2.2940     5.4900 cl         1 I0D       0.057600
     21 H1           1.9250     0.0000    -0.9410 ha         1 I0D       0.107000
     22 H2           1.9590    -0.0000     3.3240 ha         1 I0D       0.118000
     23 H3          -3.8710     0.6300    -2.2750 h1         1 I0D       0.001033
     24 H4          -2.3730     0.9270    -3.1670 h1         1 I0D       0.001033
     25 H5          -2.8480    -0.7280    -2.7630 h1         1 I0D       0.001033
     26 H7          -3.8250    -0.2120    -0.1170 h1         1 I0D       0.013700
     27 H8          -2.5310    -1.4540    -0.2780 h1         1 I0D       0.013700
     28 H9          -2.5250     1.0160     1.4700 hc         1 I0D       0.023700
     29 H10         -2.5150    -0.7030     1.9960 hc         1 I0D       0.023700
     30 H11         -0.6990    -1.0210    -1.7180 h1         1 I0D       0.019700
     31 H12         -0.2290     0.6920    -1.9880 h1         1 I0D       0.019700
     32 H13          3.1730    -0.0010     1.1790 ha         1 I0D       0.102000
     33 H14         -1.6610     0.1290     3.6230 hn         1 I0D       0.303800
     34 H15          0.8440    -2.0760     4.2990 h4         1 I0D       0.017800
     35 H16          2.8830     0.1950     8.4970 h1         1 I0D       0.024367
     36 H17          2.6810    -1.5580     8.3700 h1         1 I0D       0.024367
     37 H18          1.4780    -0.5890     9.2320 h1         1 I0D       0.024367
     38 C01         -2.8500     0.3000    -2.4230 c3         1 I0D       0.188100
@<TRIPOS>BOND
     1     1     2 ar  
     2     1     8 ar  
     3     1     9 1   
     4     2    10 ar  
     5     2    21 1   
     6     3    10 ar  
     7     3    11 ar  
     8     3    22 1   
     9     4    12 1   
    10     4    13 1   
    11     4    19 2   
    12     5     6 1   
    13     5     9 1   
    14     5    38 1   
    15     6     7 1   
    16     6    26 1   
    17     6    27 1   
    18     7     8 1   
    19     7    28 1   
    20     7    29 1   
    21     8    11 ar  
    22     9    30 1   
    23     9    31 1   
    24    10    32 1   
    25    11    12 1   
    26    12    33 1   
    27    13    14 2   
    28    13    34 1   
    29    14    15 1   
    30    15    16 1   
    31    15    17 1   
    32    16    35 1   
    33    16    36 1   
    34    16    37 1   
    35    17    18 2   
    36    17    19 1   
    37    19    20 1   
    38    23    38 1   
    39    24    38 1   
    40    25    38 1   
@<TRIPOS>SUBSTRUCTURE
     1 I0D         1 TEMP              0 ****  ****    0 ROOT
