@<TRIPOS>MOLECULE
molecule
   38    40     1     0     0
SMALL
bcc


@<TRIPOS>ATOM
      1 C13          0.0000     0.0000     0.0000 ca         1 I0D      -0.037300
      2 C17          1.3880     0.0000     0.0000 ca         1 I0D      -0.166000
      3 C21          1.4100    -0.0000     2.3900 ca         1 I0D      -0.193000
      4 C26          0.0250    -0.1370     4.8030 cc         1 I0D       0.077400
      5 N05         -2.1150     0.3990    -1.1550 n3         1 I0D      -0.726600
      6 C06         -2.7600    -0.4080    -0.1070 c3         1 I0D       0.160800
      7 C09         -2.1900     0.0100     1.2470 c3         1 I0D      -0.032100
      8 C12         -0.6830     0.0030     1.1960 ca         1 I0D      -0.121300
      9 C14         -0.7170    -0.0110    -1.3250 c3         1 I0D       0.208100
     10 C19          2.0890     0.0000     1.1890 ca         1 I0D      -0.088000
     11 C23          0.0220     0.0020     2.3980 ca         1 I0D       0.182600
     12 N24         -0.6690     0.0020     3.6120 nu         1 I0D      -0.688400
     13 C27          0.7970    -1.2930     5.0460 cc         1 I0D       0.370500
     14 N29          1.4540    -1.4240     6.1650 nd         1 I0D      -0.423300
     15 N30          1.4120    -0.4300     7.1470 n          1 I0D      -0.202800
     16 C31          2.1620    -0.6070     8.3920 c3         1 I0D       0.119300
     17 C35          0.6870     0.6910     6.9560 c          1 I0D       0.671700
     18 O36          0.6550     1.5550     7.8190 o          1 I0D      -0.623500
     19 C37         -0.0300     0.8580     5.7620 cd         1 I0D      -0.095800
     20 Cl3         -0.9660     2.2940     5.4900 cl         1 I0D      -0.046400
     21 H1           1.9250     0.0000    -0.9410 ha         1 I0D       0.131000
     22 H2           1.9590    -0.0000     3.3240 ha         1 I0D       0.137000
     23 H3          -3.8710     0.6300    -2.2750 h1         1 I0D       0.033367
     24 H4          -2.3730     0.9270    -3.1670 h1         1 I0D       0.033367
     25 H5          -2.8480    -0.7280    -2.7630 h1         1 I0D       0.033367
     26 H7          -3.8250    -0.2120    -0.1170 h1         1 I0D       0.040200
     27 H8          -2.5310    -1.4540    -0.2780 h1         1 I0D       0.040200
     28 H9          -2.5250     1.0160     1.4700 hc         1 I0D       0.055200
     29 H10         -2.5150    -0.7030     1.9960 hc         1 I0D       0.055200
     30 H11         -0.6990    -1.0210    -1.7180 h1         1 I0D       0.049200
     31 H12         -0.2290     0.6920    -1.9880 h1         1 I0D       0.049200
     32 H13          3.1730    -0.0010     1.1790 ha         1 I0D       0.133000
     33 H14         -1.6610     0.1290     3.6230 hn         1 I0D       0.462800
     34 H15          0.8440    -2.0760     4.2990 h4         1 I0D       0.069800
     35 H16          2.8830     0.1950     8.4970 h1         1 I0D       0.060033
     36 H17          2.6810    -1.5580     8.3700 h1         1 I0D       0.060033
     37 H18          1.4780    -0.5890     9.2320 h1         1 I0D       0.060033
     38 C01         -2.8500     0.3000    -2.4230 c3         1 I0D       0.152100
@<TRIPOS>BOND
     1    38     5 1
     2     9     5 1
     3     9     1 1
     4     5     6 1
     5     6     7 1
     6     1     2 ar
     7     1     8 ar
     8     2    10 ar
     9     7     8 1
    10     8    11 ar
    11    10     3 ar
    12    11     3 ar
    13    11    12 1
    14    13    14 2
    15    13     4 1
    16    14    15 1
    17    12     4 1
    18     4    19 2
    19    15    16 1
    20    15    17 1
    21    19    17 1
    22    19    20 1
    23    17    18 2
    24     2    21 1
    25     3    22 1
    26    38    23 1
    27    38    24 1
    28    38    25 1
    29     6    26 1
    30     6    27 1
    31     7    28 1
    32     7    29 1
    33     9    30 1
    34     9    31 1
    35    10    32 1
    36    12    33 1
    37    13    34 1
    38    16    35 1
    39    16    36 1
    40    16    37 1
@<TRIPOS>SUBSTRUCTURE
     1 I0D         1 TEMP              0 ****  ****    0 ROOT
