@<TRIPOS>MOLECULE
I0G
   39    42     1     0     0
SMALL
bcc


@<TRIPOS>ATOM
      1 C4          0.0760   -0.0300    0.0270 c3        1 I0G     -0.015400
      2 C6          1.5650    0.0520   -0.0070 ca        1 I0G     -0.090300
      3 C7          2.2850    0.1410    1.1900 ca        1 I0G     -0.188000
      4 C8          3.6820    0.1950    1.1600 ca        1 I0G      0.099100
      5 C10         4.3870    0.1650   -0.0570 ca        1 I0G     -0.133000
      6 C17        -1.2700    1.1900   -4.2420 ca        1 I0G     -0.077000
      7 C21        -0.3050   -0.7980   -5.9660 ca        1 I0G     -0.187500
      8 C22         0.2300   -0.6570   -4.6910 ca        1 I0G     -0.077000
      9 C24        -0.9170   -2.2760   -0.2340 c3        1 I0G     -0.077400
     10 C1         -0.8310   -1.6210   -1.6040 c3        1 I0G     -0.073400
     11 C2         -0.5560   -0.1370   -1.3700 c3        1 I0G     -0.084700
     12 O9          4.4460    0.2810    2.3040 oh        1 I0G     -0.499100
     13 C11         3.6780    0.0980   -1.2470 ca        1 I0G     -0.115000
     14 C12         2.2740    0.0450   -1.2170 ca        1 I0G      0.088100
     15 O13         1.6470   -0.0510   -2.4490 os        1 I0G     -0.323900
     16 C14         0.3170    0.5060   -2.4450 c3        1 I0G      0.200400
     17 C16        -0.2470    0.3320   -3.8220 ca        1 I0G     -0.121300
     18 C18        -1.8220    1.0600   -5.5130 ca        1 I0G     -0.187500
     19 C19        -1.3370    0.0640   -6.3730 ca        1 I0G      0.127100
     20 O20        -1.8310   -0.1250   -7.6440 oh        1 I0G     -0.497100
     21 C23        -0.4080   -1.2710    0.7900 c3        1 I0G     -0.071400
     22 H4         -0.3060    0.8980    0.5370 hc        1 I0G      0.057700
     23 H7          1.7480    0.1610    2.1490 ha        1 I0G      0.135000
     24 H10         5.4850    0.2030   -0.0490 ha        1 I0G      0.153000
     25 H21         0.0630   -1.5690   -6.6570 ha        1 I0G      0.143000
     26 H22         1.0430   -1.3230   -4.3590 ha        1 I0G      0.143000
     27 H241       -0.3020   -3.2110   -0.2090 hc        1 I0G      0.043200
     28 H242       -1.9720   -2.5670   -0.0020 hc        1 I0G      0.043200
     29 H11A       -1.7770   -1.7610   -2.1810 hc        1 I0G      0.053200
     30 H12         0.0020   -2.0690   -2.2050 hc        1 I0G      0.053200
     31 H2         -1.5340    0.4170   -1.3630 hc        1 I0G      0.058700
     32 HO9         3.8450    0.2840    3.0630 ho        1 I0G      0.416000
     33 H11         4.1990    0.0790   -2.2160 ha        1 I0G      0.152000
     34 H14         0.4130    1.6090   -2.2150 h1        1 I0G      0.053700
     35 H18        -2.6270    1.7330   -5.8410 ha        1 I0G      0.143000
     36 HO20       -2.5210    0.5360   -7.7970 ho        1 I0G      0.419000
     37 H231       -1.2310   -0.9810    1.4910 hc        1 I0G      0.045700
     38 H232        0.4170   -1.7090    1.4040 hc        1 I0G      0.045700
     39 H17        -1.6430    1.9730   -3.5650 ha        1 I0G      0.143000
@<TRIPOS>BOND
     1    1    2 1   
     2    1   11 1   
     3    1   21 1   
     4    1   22 1   
     5    2    3 ar  
     6    2   14 ar  
     7    3    4 ar  
     8    3   23 1   
     9    4    5 ar  
    10    4   12 1   
    11    5   13 ar  
    12    5   24 1   
    13    6   17 ar  
    14    6   18 ar  
    15    6   39 1   
    16    7    8 ar  
    17    7   19 ar  
    18    7   25 1   
    19    8   17 ar  
    20    8   26 1   
    21    9   10 1   
    22    9   21 1   
    23    9   27 1   
    24    9   28 1   
    25   10   11 1   
    26   10   29 1   
    27   10   30 1   
    28   11   16 1   
    29   11   31 1   
    30   12   32 1   
    31   13   14 ar  
    32   13   33 1   
    33   14   15 1   
    34   15   16 1   
    35   16   17 1   
    36   16   34 1   
    37   18   19 ar  
    38   18   35 1   
    39   19   20 1   
    40   20   36 1   
    41   21   37 1   
    42   21   38 1   
@<TRIPOS>SUBSTRUCTURE
     1 I0G         1 TEMP              0 ****  ****    0 ROOT
