@<TRIPOS>MOLECULE
molecule
   39    42     1     0     0
SMALL
bcc


@<TRIPOS>ATOM
      1 C4           0.0000     0.0000     0.0000 c3         1 I0G      -0.018400
      2 C6           1.5120     0.0000     0.0000 ca         1 I0G      -0.121300
      3 C7           2.2220     0.0000     1.2110 ca         1 I0G      -0.122000
      4 C8           3.6180    -0.0150     1.2210 ca         1 I0G       0.072100
      5 C10          4.3230    -0.0220     0.0210 ca         1 I0G      -0.124000
      6 C17         -1.2080     1.3980    -4.2750 ca         1 I0G      -0.097500
      7 C21         -0.4480    -0.6810    -5.9720 ca         1 I0G      -0.154000
      8 C22          0.0900    -0.5970    -4.6880 ca         1 I0G      -0.097500
      9 C24         -0.5940    -2.3370    -0.1800 c3         1 I0G      -0.082400
     10 C1          -0.6280    -1.7400    -1.5860 c3         1 I0G      -0.072400
     11 C2          -0.5640    -0.2100    -1.4130 c3         1 I0G      -0.094700
     12 O9           4.2890    -0.0240     2.4050 oh         1 I0G      -0.519100
     13 C11          3.6340     0.0010    -1.1900 ca         1 I0G      -0.143000
     14 C12          2.2370     0.0320    -1.2000 ca         1 I0G       0.126100
     15 O13          1.6510     0.0630    -2.4400 os         1 I0G      -0.317900
     16 C14          0.2930     0.5310    -2.4430 c3         1 I0G       0.200400
     17 C16         -0.2910     0.4420    -3.8410 ca         1 I0G      -0.093300
     18 C18         -1.7460     1.3140    -5.5600 ca         1 I0G      -0.154000
     19 C19         -1.3650     0.2750    -6.4080 ca         1 I0G       0.107100
     20 O20         -1.8910     0.1930    -7.6610 oh         1 I0G      -0.522100
     21 C23         -0.6450    -1.1510     0.7750 c3         1 I0G      -0.072400
     22 H4          -0.3590     0.9430     0.3930 hc         1 I0G       0.057700
     23 H7           1.6800     0.0060     2.1490 ha         1 I0G       0.141000
     24 H10          5.4060    -0.0330     0.0290 ha         1 I0G       0.144000
     25 H21         -0.1530    -1.4880    -6.6320 ha         1 I0G       0.142500
     26 H22          0.8030    -1.3400    -4.3500 ha         1 I0G       0.141500
     27 H241        -1.4540    -2.9770    -0.0260 hc         1 I0G       0.047700
     28 H242         0.3240    -2.8930    -0.0330 hc         1 I0G       0.047700
     29 H11A        -1.5480    -2.0180    -2.0840 hc         1 I0G       0.051700
     30 H12          0.2280    -2.0840    -2.1550 hc         1 I0G       0.051700
     31 H2          -1.5720     0.1860    -1.4490 hc         1 I0G       0.063700
     32 HO9          4.4190     0.8620     2.7000 ho         1 I0G       0.415000
     33 H11          4.1820    -0.0050    -2.1240 ha         1 I0G       0.148000
     34 H14          0.3100     1.5760    -2.1580 h1         1 I0G       0.048700
     35 H18         -2.4580     2.0560    -5.8980 ha         1 I0G       0.142500
     36 HO20        -1.3450     0.6720    -8.2630 ho         1 I0G       0.420000
     37 H231        -1.6730    -0.9100     1.0200 hc         1 I0G       0.049200
     38 H232        -0.0770    -1.3660     1.6720 hc         1 I0G       0.049200
     39 H17         -1.5030     2.2050    -3.6150 ha         1 I0G       0.141500
@<TRIPOS>BOND
     1     1    21 1
     2     1     2 1
     3     1    11 1
     4     1    22 1
     5     2     3 ar
     6     2    14 ar
     7     3     4 ar
     8     3    23 1
     9     4    12 1
    10     4     5 ar
    11     5    13 ar
    12     5    24 1
    13     6    17 ar
    14     6    18 ar
    15     6    39 1
    16     7     8 ar
    17     7    19 ar
    18     7    25 1
    19     8    17 ar
    20     8    26 1
    21     9    21 1
    22     9    10 1
    23     9    27 1
    24     9    28 1
    25    10    11 1
    26    10    29 1
    27    10    30 1
    28    11    16 1
    29    11    31 1
    30    12    32 1
    31    13    14 ar
    32    13    33 1
    33    14    15 1
    34    15    16 1
    35    16    17 1
    36    16    34 1
    37    18    19 ar
    38    18    35 1
    39    19    20 1
    40    20    36 1
    41    21    37 1
    42    21    38 1
@<TRIPOS>SUBSTRUCTURE
     1 I0G         1 TEMP              0 ****  ****    0 ROOT
