@<TRIPOS>MOLECULE
molecule
   36    36     1     0     0
SMALL
bcc


@<TRIPOS>ATOM
      1 O21          0.0000     0.0000     0.0000 o          1 I0P      -0.968667
      2 P1           1.6090     0.0000     0.0000 p5         1 I0P       1.280400
      3 O41          2.1470     0.0000     1.5180 o          1 I0P      -0.968667
      4 O31          2.1040    -1.2080    -0.6980 o          1 I0P      -0.968667
      5 O11          2.1460     1.3160    -0.7580 os         1 I0P      -0.570200
      6 C1           3.5310     1.5550    -1.0170 c3         1 I0P       0.212100
      7 C6           3.7550     1.6730    -2.5250 c3         1 I0P       0.219100
      8 O16          3.3550     0.4600    -3.1630 os         1 I0P      -0.512700
      9 P6           2.1990     0.3970    -4.2830 p5         1 I0P       1.303400
     10 O46          2.6690     1.2170    -5.5860 o          1 I0P      -0.970333
     11 O26          1.9230    -1.1370    -4.6840 o          1 I0P      -0.970333
     12 O36          0.9580     0.9970    -3.7440 o          1 I0P      -0.970333
     13 C5           5.2390     1.9300    -2.8010 c3         1 I0P       0.219100
     14 O15          5.4480     2.0400    -4.2110 os         1 I0P      -0.512700
     15 P5           6.4240     1.0580    -5.0320 p5         1 I0P       1.303400
     16 O45          7.7720     1.0770    -4.4220 o          1 I0P      -0.970333
     17 O35          5.8350    -0.4410    -4.9890 o          1 I0P      -0.970333
     18 O25          6.5200     1.5520    -6.5620 o          1 I0P      -0.970333
     19 C2           3.9600     2.8540    -0.3330 c3         1 I0P       0.104100
     20 O12          3.1860     3.9400    -0.8460 oh         1 I0P      -0.572800
     21 C3           5.4430     3.1110    -0.6100 c3         1 I0P       0.104100
     22 O13          5.8440     4.3250     0.0290 oh         1 I0P      -0.572800
     23 C4           5.6670     3.2290    -2.1180 c3         1 I0P       0.212100
     24 O14          7.0520     3.4690    -2.3760 os         1 I0P      -0.570200
     25 P4           7.5880     4.7830    -3.1350 p5         1 I0P       1.280400
     26 O24          7.0950     5.9920    -2.4370 o          1 I0P      -0.968667
     27 O44          9.1990     4.7840    -3.1340 o          1 I0P      -0.968667
     28 O34          7.0530     4.7840    -4.6520 o          1 I0P      -0.968667
     29 H1           4.1220     0.7340    -0.6300 h1         1 I0P       0.039200
     30 H6           3.1710     2.5000    -2.9110 h1         1 I0P       0.023700
     31 H2           3.8040     2.7660     0.7360 h1         1 I0P      -0.014800
     32 H5           5.8250     1.1070    -2.4080 h1         1 I0P       0.023700
     33 H4           5.0760     4.0500    -2.5050 h1         1 I0P       0.039200
     34 H12          2.7280     4.3620    -0.1380 ho         1 I0P       0.305000
     35 H3           6.0280     2.2850    -0.2240 h1         1 I0P      -0.014800
     36 H13          6.2770     4.1240     0.8420 ho         1 I0P       0.305000
@<TRIPOS>BOND
     1     1     2 1
     2     2     3 1
     3     2     4 1
     4     2     5 1
     5     5     6 1
     6     6     7 1
     7     6    19 1
     8     7     8 1
     9     7    13 1
    10     8     9 1
    11     9    10 1
    12     9    11 1
    13     9    12 1
    14    13    14 1
    15    13    23 1
    16    14    15 1
    17    15    16 1
    18    15    17 1
    19    15    18 1
    20    19    20 1
    21    19    21 1
    22    21    22 1
    23    21    23 1
    24    23    24 1
    25    24    25 1
    26    25    26 1
    27    25    27 1
    28    25    28 1
    29     6    29 1
    30     7    30 1
    31    19    31 1
    32    13    32 1
    33    23    33 1
    34    20    34 1
    35    21    35 1
    36    22    36 1
@<TRIPOS>SUBSTRUCTURE
     1 I0P         1 TEMP              0 ****  ****    0 ROOT
