@<TRIPOS>MOLECULE
I0P
   36    36     1     0     0
SMALL
bcc


@<TRIPOS>ATOM
      1 O21         0.7520    0.4400    1.2620 o         1 I0P     -0.981167
      2 P1          2.0630   -0.1030    0.6950 p5        1 I0P      1.377900
      3 O41         3.2010    0.1640    1.6660 o         1 I0P     -0.981167
      4 O31         1.9240   -1.5960    0.4390 o         1 I0P     -0.981167
      5 O11         2.3280    0.7700   -0.7570 os        1 I0P     -0.603700
      6 C1          3.5590    1.1890   -1.2680 c3        1 I0P      0.203100
      7 C6          3.6790    1.5760   -2.8290 c3        1 I0P      0.215100
      8 O16         2.9880    0.7550   -3.6970 os        1 I0P     -0.559200
      9 P6          1.5890    1.2850   -4.5530 p5        1 I0P      1.367400
     10 O46         1.9070    1.5340   -6.0220 o         1 I0P     -0.978500
     11 O26         0.5910    0.1310   -4.5090 o         1 I0P     -0.978500
     12 O36         1.0500    2.5530   -3.9180 o         1 I0P     -0.978500
     13 C5          5.2990    1.7180   -3.0440 c3        1 I0P      0.215100
     14 O15         5.7900    1.4510   -4.3050 os        1 I0P     -0.559200
     15 P5          7.0210    0.2800   -4.6110 p5        1 I0P      1.367400
     16 O45         7.7020   -0.1270   -3.3170 o         1 I0P     -0.978500
     17 O35         6.4390   -0.9480   -5.3000 o         1 I0P     -0.978500
     18 O25         7.9920    0.9190   -5.5990 o         1 I0P     -0.978500
     19 C2          3.9820    2.5030   -0.5330 c3        1 I0P      0.096100
     20 O12         3.0060    3.5320   -0.6840 oh        1 I0P     -0.689800
     21 C3          5.3800    3.0050   -0.9340 c3        1 I0P      0.096100
     22 O13         5.6550    4.1440   -0.1200 oh        1 I0P     -0.689800
     23 C4          5.6060    3.2050   -2.4740 c3        1 I0P      0.203100
     24 O14         6.8700    3.7590   -2.6930 os        1 I0P     -0.603700
     25 P4          7.3460    5.3890   -2.8810 p5        1 I0P      1.377900
     26 O24         6.5030    6.2210   -1.9210 o         1 I0P     -0.981167
     27 O44         8.8040    5.4320   -2.4320 o         1 I0P     -0.981167
     28 O34         7.2160    5.9290   -4.2920 o         1 I0P     -0.981167
     29 H1          4.3220    0.3950   -1.0380 h1        1 I0P      0.005200
     30 H6          3.2440    2.6140   -2.9480 h1        1 I0P      0.005200
     31 H2          4.0150    2.3010    0.5790 h1        1 I0P      0.022200
     32 H5          5.8020    0.9940   -2.3360 h1        1 I0P      0.005200
     33 H4          4.8310    3.9170   -2.8700 h1        1 I0P      0.005200
     34 H12         2.3420    3.1910   -1.3040 ho        1 I0P      0.440500
     35 H3          6.1220    2.2230   -0.5940 h1        1 I0P      0.022200
     36 H13         5.8450    4.8810   -0.7310 ho        1 I0P      0.440500
@<TRIPOS>BOND
     1    1    2 1   
     2    2    3 1   
     3    2    4 1   
     4    2    5 1   
     5    5    6 1   
     6    6    7 1   
     7    6   19 1   
     8    6   29 1   
     9    7    8 1   
    10    7   13 1   
    11    7   30 1   
    12    8    9 1   
    13    9   10 1   
    14    9   11 1   
    15    9   12 1   
    16   13   14 1   
    17   13   23 1   
    18   13   32 1   
    19   14   15 1   
    20   15   16 1   
    21   15   17 1   
    22   15   18 1   
    23   19   20 1   
    24   19   21 1   
    25   19   31 1   
    26   20   34 1   
    27   21   22 1   
    28   21   23 1   
    29   21   35 1   
    30   22   36 1   
    31   23   24 1   
    32   23   33 1   
    33   24   25 1   
    34   25   26 1   
    35   25   27 1   
    36   25   28 1   
@<TRIPOS>SUBSTRUCTURE
     1 I0P         1 TEMP              0 ****  ****    0 ROOT
