@<TRIPOS>MOLECULE
molecule
   65    67     1     0     0
SMALL
bcc


@<TRIPOS>ATOM
      1 C1           0.0000     0.0000     0.0000 ca         1 I10      -0.128500
      2 C2           1.3800     0.0000     0.0000 ca         1 I10      -0.118000
      3 C3           2.0740     0.0000     1.2080 cp         1 I10      -0.034000
      4 C7           3.5580    -0.0000     1.2140 cp         1 I10      -0.043000
      5 C8           4.2540    -0.7780     2.1370 ca         1 I10      -0.110000
      6 C9           5.6330    -0.7700     2.1430 ca         1 I10      -0.071300
      7 C10          6.3260     0.0020     1.2270 ca         1 I10      -0.086000
      8 C11          5.6410     0.7720     0.3050 ca         1 I10      -0.129000
      9 C12          4.2610     0.7750     0.2940 ca         1 I10      -0.113000
     10 C13          6.3870    -1.6050     3.1440 c3         1 I10      -0.098400
     11 C14          7.2500    -0.7130     3.9980 c          1 I10       0.661100
     12 C16          7.2710    -2.6130     2.4050 c3         1 I10      -0.066400
     13 C20          7.2670    -4.5310     0.8050 c3         1 I10      -0.088600
     14 C24          5.5930    -4.4470     2.6580 c3         1 I10      -0.088600
     15 N29          7.9150    -1.2240     5.0510 ns         1 I10      -0.586900
     16 C30          8.6630    -0.3400     5.9460 c3         1 I10       0.100000
     17 C31          9.4210    -1.1770     6.9770 c3         1 I10       0.120100
     18 C35         10.0970    -0.2520     7.9910 c3         1 I10       0.231800
     19 C4           1.3700    -0.0050     2.4100 ca         1 I10      -0.118000
     20 C5          -0.0100     0.0000     2.3990 ca         1 I10      -0.128500
     21 C6          -0.6940     0.0000     1.1960 ca         1 I10      -0.129000
     22 O15          7.3440     0.4680     3.7360 o          1 I10      -0.593100
     23 C17          6.3870    -3.6100     1.6530 c3         1 I10      -0.079700
     24 O34         10.4130    -1.9640     6.3150 oh         1 I10      -0.589800
     25 N36         10.8220    -1.0540     8.9780 n7         1 I10      -0.910100
     26 S39         11.6530    -0.3100    10.2020 sy         1 I10       1.357800
     27 O40         12.0850    -1.3520    11.0650 o          1 I10      -0.616300
     28 O41         12.5010     0.6400     9.5700 o          1 I10      -0.616300
     29 C42         10.4900     0.6320    11.1310 ca         1 I10       0.184200
     30 N43         10.2530     1.8850    10.8000 nb         1 I10      -0.599000
     31 C44          9.3870     2.6260    11.4640 ca         1 I10       0.396200
     32 C45          8.7010     2.1110    12.5470 ca         1 I10      -0.202300
     33 C46          8.9280     0.7980    12.9280 ca         1 I10      -0.113000
     34 C47          9.8420     0.0490    12.2040 ca         1 I10      -0.162300
     35 H1          -0.5410     0.0000    -0.9390 ha         1 I10       0.129500
     36 H2           1.9220    -0.0000    -0.9380 ha         1 I10       0.133500
     37 H8           3.7120    -1.3830     2.8540 ha         1 I10       0.129000
     38 H10          7.4090     0.0050     1.2330 ha         1 I10       0.140000
     39 H11          6.1880     1.3750    -0.4100 ha         1 I10       0.132000
     40 H12          3.7260     1.3780    -0.4290 ha         1 I10       0.133000
     41 H13          5.6830    -2.1360     3.7730 hc         1 I10       0.069700
     42 H161         7.9050    -2.0880     1.7000 hc         1 I10       0.048700
     43 H162         7.8880    -3.1440     3.1190 hc         1 I10       0.048700
     44 H201         7.8480    -3.9370     0.1100 hc         1 I10       0.034200
     45 H202         7.9350    -5.0880     1.4510 hc         1 I10       0.034200
     46 H203         6.6400    -5.2220     0.2530 hc         1 I10       0.034200
     47 H241         6.1440    -4.5150     3.5880 hc         1 I10       0.034200
     48 H242         5.4380    -5.4410     2.2560 hc         1 I10       0.034200
     49 H243         4.6330    -3.9780     2.8400 hc         1 I10       0.034200
     50 HN2          7.8980    -2.2100     5.2220 hn         1 I10       0.308500
     51 H301         9.3680     0.2460     5.3680 h1         1 I10       0.068200
     52 H302         7.9740     0.3240     6.4550 h1         1 I10       0.068200
     53 H31          8.7270    -1.8300     7.4930 h1         1 I10       0.033700
     54 H351        10.7910     0.4020     7.4760 h1         1 I10       0.065200
     55 H352         9.3450     0.3450     8.4930 h1         1 I10       0.065200
     56 H4           1.9050    -0.0050     3.3520 ha         1 I10       0.133500
     57 H5          -0.5590    -0.0010     3.3330 ha         1 I10       0.129500
     58 H6          -1.7770     0.0020     1.1910 ha         1 I10       0.128000
     59 H17          5.7020    -3.0720     1.0090 hc         1 I10       0.065700
     60 HO3         10.1990    -2.8780     6.4010 ho         1 I10       0.400000
     61 HN3         10.8160    -2.0520     8.9130 hn         1 I10       0.452800
     62 H44          9.2160     3.6520    11.1610 h4         1 I10       0.033100
     63 H45          7.9920     2.7250    13.0900 ha         1 I10       0.143000
     64 H46          8.4050     0.3670    13.7740 ha         1 I10       0.145000
     65 H47         10.0440    -0.9810    12.4730 ha         1 I10       0.160000
@<TRIPOS>BOND
     1     1     2 ar
     2     1    21 ar
     3     1    35 1
     4     2     3 ar
     5     2    36 1
     6     3     4 1
     7     3    19 ar
     8     4     5 ar
     9     4     9 ar
    10     5     6 ar
    11     5    37 1
    12     6     7 ar
    13     6    10 1
    14     7     8 ar
    15     7    38 1
    16     8     9 ar
    17     8    39 1
    18     9    40 1
    19    10    11 1
    20    10    12 1
    21    10    41 1
    22    11    15 1
    23    11    22 2
    24    12    23 1
    25    12    42 1
    26    12    43 1
    27    13    23 1
    28    13    44 1
    29    13    45 1
    30    13    46 1
    31    14    23 1
    32    14    47 1
    33    14    48 1
    34    14    49 1
    35    15    16 1
    36    15    50 1
    37    16    17 1
    38    16    51 1
    39    16    52 1
    40    17    18 1
    41    17    24 1
    42    17    53 1
    43    18    25 1
    44    18    54 1
    45    18    55 1
    46    19    20 ar
    47    19    56 1
    48    20    21 ar
    49    20    57 1
    50    21    58 1
    51    23    59 1
    52    24    60 1
    53    25    26 1
    54    25    61 1
    55    26    27 2
    56    26    28 2
    57    26    29 1
    58    29    30 ar
    59    29    34 ar
    60    30    31 ar
    61    31    32 ar
    62    31    62 1
    63    32    33 ar
    64    32    63 1
    65    33    34 ar
    66    33    64 1
    67    34    65 1
@<TRIPOS>SUBSTRUCTURE
     1 I10         1 TEMP              0 ****  ****    0 ROOT
