@<TRIPOS>MOLECULE
molecule
   68    70     1     0     0
SMALL
bcc


@<TRIPOS>ATOM
      1 C1           0.0000     0.0000     0.0000 c3         1 I11      -0.070400
      2 C2           1.5290     0.0000     0.0000 c3         1 I11      -0.057900
      3 C3           2.0400     0.0000     1.4430 c3         1 I11      -0.211900
      4 C4           1.5290    -1.2490     2.1640 c3         1 I11      -0.057900
      5 C5          -0.0010    -1.2490     2.1630 c3         1 I11      -0.070400
      6 C6          -0.5110    -1.2490     0.7210 c3         1 I11      -0.080400
      7 S19          3.8530     0.0000     1.4440 s6         1 I11       1.330900
      8 O43          4.3770    -1.2420     0.9940 o          1 I11      -0.614800
      9 O44          4.3780     1.2440     1.0010 o          1 I11      -0.614800
     10 N20          4.2300    -0.0050     3.0560 n7         1 I11      -0.905100
     11 C21          3.8850     1.1480     3.8920 c3         1 I11       0.173800
     12 C22          3.9860     0.7630     5.3460 c          1 I11       0.656100
     13 O42          4.3140    -0.3640     5.6520 o          1 I11      -0.588100
     14 N23          3.7070     1.6670     6.3040 ns         1 I11      -0.578900
     15 C24          3.7980     1.2910     7.7160 c3         1 I11       0.048700
     16 C25          2.8850     2.1960     8.5460 c3         1 I11      -0.109400
     17 C26          1.4270     1.9470     8.1540 c3         1 I11       0.030300
     18 N27          0.5530     2.8130     8.9480 nu         1 I11      -0.383100
     19 C28         -0.8260     2.7640     8.7680 cc         1 I11       0.255700
     20 C29         -1.6750     3.5810     9.5140 cc         1 I11      -0.222500
     21 C30         -3.0350     3.5020     9.3050 cd         1 I11       0.027000
     22 N31         -3.5350     2.6670     8.4130 na         1 I11      -0.300800
     23 C32         -2.7660     1.8790     7.6870 cd         1 I11       0.027000
     24 C33         -1.3950     1.9010     7.8320 cc         1 I11      -0.222500
     25 C34          5.2210     1.4470     8.1860 c          1 I11       0.650100
     26 O41          5.9800     2.1810     7.5900 o          1 I11      -0.584100
     27 N35          5.6520     0.7700     9.2700 n          1 I11      -0.482800
     28 C36          7.0270     0.9350     9.7590 c3         1 I11       0.102000
     29 C37          6.9820     1.3100    11.2430 c3         1 I11      -0.100400
     30 C38          6.1660     0.2620    12.0050 c3         1 I11      -0.080400
     31 C39          4.7330     0.2410    11.4680 c3         1 I11      -0.100400
     32 C40          4.7510    -0.1410     9.9900 c3         1 I11       0.102000
     33 H11         -0.3600     0.8840     0.5130 hc         1 I11       0.040200
     34 H12         -0.3600    -0.0020    -1.0220 hc         1 I11       0.040200
     35 H21          1.8890    -0.8860    -0.5090 hc         1 I11       0.059450
     36 H22          1.8890     0.8860    -0.5090 hc         1 I11       0.059450
     37 H3           1.6740     0.8830     1.9530 h1         1 I11       0.086700
     38 H41          1.8880    -1.2460     3.1860 hc         1 I11       0.059450
     39 H42          1.8890    -2.1330     1.6520 hc         1 I11       0.059450
     40 H51         -0.3610    -2.1350     2.6720 hc         1 I11       0.040200
     41 H52         -0.3610    -0.3630     2.6720 hc         1 I11       0.040200
     42 H61         -0.1480    -2.1330     0.2110 hc         1 I11       0.048700
     43 H62         -1.5940    -1.2460     0.7220 hc         1 I11       0.048700
     44 H20          4.7340    -0.7750     3.4490 hn         1 I11       0.482800
     45 H211         4.5710     1.9610     3.6860 h1         1 I11       0.063700
     46 H212         2.8730     1.4640     3.6720 h1         1 I11       0.063700
     47 H23          3.4720     2.6070     6.0510 hn         1 I11       0.322500
     48 H24          3.4890     0.2600     7.8360 h1         1 I11       0.095700
     49 H251         3.1370     3.2330     8.3580 hc         1 I11       0.074700
     50 H252         3.0190     1.9770     9.5980 hc         1 I11       0.074700
     51 H261         1.2940     2.1660     7.1020 h1         1 I11       0.064700
     52 H262         1.1750     0.9100     8.3420 h1         1 I11       0.064700
     53 H27          0.9480     3.4420     9.6190 hn         1 I11       0.316700
     54 H29         -1.2720     4.2690    10.2480 ha         1 I11       0.190500
     55 H30         -3.7030     4.1330     9.8800 h4         1 I11       0.204500
     56 H31         -4.5270     2.6300     8.2840 hn         1 I11       0.491800
     57 H32         -3.2170     1.2100     6.9640 h4         1 I11       0.204500
     58 H33         -0.7690     1.2510     7.2320 ha         1 I11       0.190500
     59 H361         7.5690     0.0050     9.6360 h1         1 I11       0.059950
     60 H362         7.5180     1.7240     9.2010 h1         1 I11       0.059950
     61 H371         7.9900     1.3390    11.6390 hc         1 I11       0.049700
     62 H372         6.5160     2.2810    11.3560 hc         1 I11       0.049700
     63 H381         6.1520     0.5130    13.0590 hc         1 I11       0.052200
     64 H382         6.6160    -0.7140    11.8670 hc         1 I11       0.052200
     65 H391         4.2920     1.2240    11.5810 hc         1 I11       0.049700
     66 H392         4.1520    -0.4870    12.0210 hc         1 I11       0.049700
     67 H401         5.1070    -1.1590     9.8840 h1         1 I11       0.059950
     68 H402         3.7510    -0.0570     9.5820 h1         1 I11       0.059950
@<TRIPOS>BOND
     1     1     2 1
     2     1     6 1
     3     1    33 1
     4     1    34 1
     5     2     3 1
     6     2    35 1
     7     2    36 1
     8     3     4 1
     9     3     7 1
    10     3    37 1
    11     4     5 1
    12     4    38 1
    13     4    39 1
    14     5     6 1
    15     5    40 1
    16     5    41 1
    17     6    42 1
    18     6    43 1
    19     7     8 2
    20     7     9 2
    21     7    10 1
    22    10    11 1
    23    10    44 1
    24    11    12 1
    25    11    45 1
    26    11    46 1
    27    12    13 2
    28    12    14 1
    29    14    15 1
    30    14    47 1
    31    15    16 1
    32    15    25 1
    33    15    48 1
    34    16    17 1
    35    16    49 1
    36    16    50 1
    37    17    18 1
    38    17    51 1
    39    17    52 1
    40    18    19 2
    41    18    53 1
    42    19    20 1
    43    19    24 1
    44    20    21 2
    45    20    54 1
    46    21    22 1
    47    21    55 1
    48    22    23 1
    49    22    56 1
    50    23    24 2
    51    23    57 1
    52    24    58 1
    53    25    26 2
    54    25    27 1
    55    27    28 1
    56    27    32 1
    57    28    29 1
    58    28    59 1
    59    28    60 1
    60    29    30 1
    61    29    61 1
    62    29    62 1
    63    30    31 1
    64    30    63 1
    65    30    64 1
    66    31    32 1
    67    31    65 1
    68    31    66 1
    69    32    67 1
    70    32    68 1
@<TRIPOS>SUBSTRUCTURE
     1 I11         1 TEMP              0 ****  ****    0 ROOT
