@<TRIPOS>MOLECULE
molecule
   55    56     1     0     0
SMALL
bcc


@<TRIPOS>ATOM
      1 C1           0.0000     0.0000     0.0000 c3         1 I13       0.189700
      2 C2           1.5300     0.0000     0.0000 c3         1 I13      -0.102600
      3 C3          -0.5100     0.0000     1.4430 c3         1 I13      -0.102600
      4 C4          -0.1820     2.4210    -0.2150 c          1 I13       0.786100
      5 C5          -0.2240     4.7920    -0.4220 ca         1 I13       0.067600
      6 C6          -1.0890     5.8720    -0.5330 ca         1 I13      -0.109000
      7 C7          -0.6830     7.1250    -0.1150 ca         1 I13      -0.137200
      8 N1          -0.4880     1.1970    -0.6900 ns         1 I13      -0.597900
      9 N2          -0.6310     3.5220    -0.8510 ns         1 I13      -0.493100
     10 N3          -1.6040     8.2770    -0.2320 no         1 I13       0.295200
     11 C9           1.4470     6.2280     0.5230 ca         1 I13      -0.110000
     12 C8           0.5840     7.3020     0.4130 ca         1 I13       0.056400
     13 O1          -2.7190     8.1210    -0.6960 o          1 I13      -0.195500
     14 O2          -1.2470     9.3820     0.1360 o          1 I13      -0.195500
     15 Cl           1.0900     8.8790     0.9380 cl         1 I13      -0.032400
     16 C10          1.0470     4.9720     0.1080 ca         1 I13      -0.080000
     17 O            0.5000     2.5310     0.7850 o          1 I13      -0.639100
     18 C12         -0.5030    -1.2290    -0.7110 ca         1 I13      -0.091300
     19 C17         -1.6530    -1.1640    -1.4690 ca         1 I13      -0.090000
     20 C16         -2.1170    -2.3040    -2.1270 ca         1 I13      -0.154900
     21 C15         -1.4130    -3.5040    -2.0130 ca         1 I13      -0.093000
     22 C14         -0.2640    -3.5550    -1.2500 ca         1 I13      -0.121000
     23 C13          0.1940    -2.4210    -0.6050 ca         1 I13      -0.082000
     24 C18         -3.3480    -2.2420    -2.9410 ce         1 I13       0.486900
     25 C19         -3.8450    -3.4750    -3.6500 c3         1 I13      -0.175400
     26 N4          -3.9980    -1.1290    -3.0450 n2         1 I13      -0.468200
     27 O3          -5.1780    -1.0690    -3.8250 os         1 I13      -0.255300
     28 C47         -5.7930     0.2210    -3.8510 c3         1 I13       0.132400
     29 C48         -7.0510     0.1680    -4.7190 c3         1 I13       0.096800
     30 N5          -8.0410    -0.7200    -4.0940 nz         1 I13      -0.808600
     31 H1           1.8910    -0.0970    -1.0170 hc         1 I13       0.055533
     32 H2           1.8910     0.9290     0.4240 hc         1 I13       0.055533
     33 H3           1.8910    -0.8320     0.5920 hc         1 I13       0.055533
     34 H4          -0.5960    -1.0210     1.7960 hc         1 I13       0.055533
     35 H5          -1.4820     0.4780     1.4820 hc         1 I13       0.055533
     36 H6           0.1850     0.5430     2.0720 hc         1 I13       0.055533
     37 H7          -2.0950     5.7240    -0.9050 ha         1 I13       0.163000
     38 H8          -1.0070     1.1060    -1.5410 hn         1 I13       0.309500
     39 H9          -1.2450     3.4310    -1.6360 hn         1 I13       0.319500
     40 H10          2.4380     6.3700     0.9370 ha         1 I13       0.168000
     41 H11          1.7230     4.1310     0.1950 ha         1 I13       0.180000
     42 H12         -2.1950    -0.2290    -1.5540 ha         1 I13       0.142000
     43 H13         -1.7690    -4.3930    -2.5190 ha         1 I13       0.139000
     44 H14          0.2850    -4.4850    -1.1620 ha         1 I13       0.150000
     45 H15          1.0970    -2.4670    -0.0080 ha         1 I13       0.154000
     46 H16         -4.1610    -4.2090    -2.9190 hc         1 I13       0.063700
     47 H17         -4.6830    -3.2140    -4.2850 hc         1 I13       0.063700
     48 H18         -3.0490    -3.8890    -4.2560 hc         1 I13       0.063700
     49 H19         -6.0610     0.5130    -2.8430 h1         1 I13       0.076700
     50 H20         -5.0990     0.9430    -4.2640 h1         1 I13       0.076700
     51 H21         -7.4680     1.1640    -4.8120 hx         1 I13       0.120700
     52 H22         -6.7970    -0.2100    -5.7020 hx         1 I13       0.120700
     53 H23         -8.0890    -0.5280    -3.1130 hn         1 I13       0.459800
     54 H24         -7.7700    -1.6730    -4.2340 hn         1 I13       0.459800
     55 H53         -8.9380    -0.5640    -4.5080 hn         1 I13       0.459800
@<TRIPOS>BOND
     1    14    10 1
     2    13    10 1
     3    10     7 1
     4    15    12 1
     5     7    12 ar
     6     7     6 ar
     7    12    11 ar
     8     6     5 ar
     9     2     1 1
    10    17     4 2
    11    11    16 ar
    12     5    16 ar
    13     5     9 1
    14     4     9 1
    15     4     8 1
    16    23    22 ar
    17    23    18 ar
    18    22    21 ar
    19     1     8 1
    20     1    18 1
    21     1     3 1
    22    18    19 ar
    23    21    20 ar
    24    19    20 ar
    25    20    24 1
    26    26    24 2
    27    26    27 1
    28    24    25 1
    29    28    27 1
    30    28    29 1
    31    29    30 1
    32     2    31 1
    33     2    32 1
    34     2    33 1
    35     3    34 1
    36     3    35 1
    37     3    36 1
    38     6    37 1
    39     8    38 1
    40     9    39 1
    41    11    40 1
    42    16    41 1
    43    19    42 1
    44    21    43 1
    45    22    44 1
    46    23    45 1
    47    25    46 1
    48    25    47 1
    49    25    48 1
    50    28    49 1
    51    28    50 1
    52    29    51 1
    53    29    52 1
    54    30    53 1
    55    30    54 1
    56    55    30 1
@<TRIPOS>SUBSTRUCTURE
     1 I13         1 TEMP              0 ****  ****    0 ROOT
