@<TRIPOS>MOLECULE
I13
   55    56     1     0     0
SMALL
bcc


@<TRIPOS>ATOM
      1 C1           0.0000     0.0000     0.0000 c3         1 I13       0.090700
      2 C2           1.5300     0.0000     0.0000 c3         1 I13      -0.025100
      3 C3          -0.5100     0.0000     1.4430 c3         1 I13      -0.025100
      4 C4          -0.1820     2.4210    -0.2150 c          1 I13       0.574100
      5 C5          -0.2240     4.7920    -0.4220 ca         1 I13      -0.095400
      6 C6          -1.0890     5.8720    -0.5330 ca         1 I13      -0.045000
      7 C7          -0.6830     7.1250    -0.1150 ca         1 I13      -0.431200
      8 N1          -0.4880     1.1970    -0.6900 ns         1 I13      -0.225900
      9 N2          -0.6310     3.5220    -0.8510 ns         1 I13      -0.055100
     10 N3          -1.6040     8.2770    -0.2320 no         1 I13       1.050200
     11 C9           1.4470     6.2280     0.5230 ca         1 I13      -0.096000
     12 C8           0.5840     7.3020     0.4130 ca         1 I13       0.003400
     13 O1          -2.7190     8.1210    -0.6960 o          1 I13      -0.448500
     14 O2          -1.2470     9.3820     0.1360 o          1 I13      -0.448500
     15 Cl           1.0900     8.8790     0.9380 cl         1 I13       0.075600
     16 C10          1.0470     4.9720     0.1080 ca         1 I13      -0.035000
     17 O            0.5000     2.5310     0.7850 o          1 I13      -0.685100
     18 C12         -0.5030    -1.2290    -0.7110 ca         1 I13      -0.100300
     19 C17         -1.6530    -1.1640    -1.4690 ca         1 I13      -0.069000
     20 C16         -2.1170    -2.3040    -2.1270 ca         1 I13      -0.169900
     21 C15         -1.4130    -3.5040    -2.0130 ca         1 I13      -0.070000
     22 C14         -0.2640    -3.5550    -1.2500 ca         1 I13      -0.092000
     23 C13          0.1940    -2.4210    -0.6050 ca         1 I13      -0.053000
     24 C18         -3.3480    -2.2420    -2.9410 ce         1 I13       0.487900
     25 C19         -3.8450    -3.4750    -3.6500 c3         1 I13      -0.064400
     26 N4          -3.9980    -1.1290    -3.0450 n2         1 I13      -0.442200
     27 O3          -5.1780    -1.0690    -3.8250 os         1 I13      -0.243300
     28 C47         -5.7930     0.2210    -3.8510 c3         1 I13       0.222400
     29 C48         -7.0510     0.1680    -4.7190 c3         1 I13      -0.051200
     30 N5          -8.0410    -0.7200    -4.0940 nz         1 I13       0.084400
     31 H1           1.8910     0.9360     0.4080 hc         1 I13       0.025033
     32 H2           1.8910    -0.8210     0.6070 hc         1 I13       0.025033
     33 H3           1.8910    -0.1150    -1.0150 hc         1 I13       0.025033
     34 H4           0.2050     0.5070     2.0790 hc         1 I13       0.025033
     35 H5          -1.4630     0.5150     1.4890 hc         1 I13       0.025033
     36 H6          -0.6350    -1.0210     1.7820 hc         1 I13       0.025033
     37 H7          -2.0600     5.7430    -0.9950 ha         1 I13       0.129000
     38 H8          -1.0150     1.1060    -1.5360 hn         1 I13       0.175500
     39 H9          -1.2300     3.4310    -1.6470 hn         1 I13       0.159500
     40 H10          2.4380     6.3700     0.9370 ha         1 I13       0.129000
     41 H11          1.7230     4.1310     0.1950 ha         1 I13       0.149000
     42 H12         -2.1950    -0.2290    -1.5540 ha         1 I13       0.120000
     43 H13         -1.7690    -4.3930    -2.5190 ha         1 I13       0.111000
     44 H14          0.2850    -4.4850    -1.1620 ha         1 I13       0.117000
     45 H15          1.0970    -2.4670    -0.0080 ha         1 I13       0.127000
     46 H16         -4.6730    -3.2110    -4.2970 hc         1 I13       0.026367
     47 H17         -4.1760    -4.2030    -2.9190 hc         1 I13       0.026367
     48 H18         -3.0440    -3.8980    -4.2440 hc         1 I13       0.026367
     49 H19         -5.0990     0.9430    -4.2640 h1         1 I13       0.036200
     50 H20         -6.0610     0.5130    -2.8430 h1         1 I13       0.036200
     51 H21         -7.4680     1.1640    -4.8120 hx         1 I13       0.090200
     52 H22         -6.7970    -0.2100    -5.7020 hx         1 I13       0.090200
     53 H23         -7.7850    -1.6730    -4.2590 hn         1 I13       0.225800
     54 H24         -8.9440    -0.5430    -4.4870 hn         1 I13       0.225800
     55 H53         -8.0670    -0.5480    -3.1080 hn         1 I13       0.225800
@<TRIPOS>BOND
     1     1     2 1   
     2     1     3 1   
     3     1     8 1   
     4     1    18 1   
     5     2    31 1   
     6     2    32 1   
     7     2    33 1   
     8     3    34 1   
     9     3    35 1   
    10     3    36 1   
    11     4     8 1   
    12     4     9 1   
    13     4    17 2   
    14     5     6 ar  
    15     5     9 1   
    16     5    16 ar  
    17     6     7 ar  
    18     6    37 1   
    19     7    10 1   
    20     7    12 ar  
    21     8    38 1   
    22     9    39 1   
    23    10    13 1   
    24    10    14 1   
    25    11    12 ar  
    26    11    16 ar  
    27    11    40 1   
    28    12    15 1   
    29    16    41 1   
    30    18    19 ar  
    31    18    23 ar  
    32    19    20 ar  
    33    19    42 1   
    34    20    21 ar  
    35    20    24 1   
    36    21    22 ar  
    37    21    43 1   
    38    22    23 ar  
    39    22    44 1   
    40    23    45 1   
    41    24    25 1   
    42    24    26 2   
    43    25    46 1   
    44    25    47 1   
    45    25    48 1   
    46    26    27 1   
    47    27    28 1   
    48    28    29 1   
    49    28    49 1   
    50    28    50 1   
    51    29    30 1   
    52    29    51 1   
    53    29    52 1   
    54    30    53 1   
    55    30    54 1   
    56    30    55 1   
@<TRIPOS>SUBSTRUCTURE
     1 I13         1 TEMP              0 ****  ****    0 ROOT
