@<TRIPOS>MOLECULE
molecule
   31    33     1     0     0
SMALL
bcc


@<TRIPOS>ATOM
      1 C1           0.0000     0.0000     0.0000 ca         1 I15      -0.216900
      2 C2           1.4060     0.0000     0.0000 ca         1 I15       0.148100
      3 C3          -0.7190     0.0290     1.2120 ca         1 I15       0.002800
      4 C4          -0.9840    -0.0010    -1.0950 cc         1 I15       0.368900
      5 O5           2.0560    -0.0180    -1.2240 os         1 I15      -0.274200
      6 C6           2.1790     0.0000     1.1900 ca         1 I15       0.046900
      7 N7          -2.0780     0.0530     0.7870 na         1 I15      -0.064100
      8 C8          -0.0110     0.0310     2.3770 ca         1 I15      -0.137000
      9 N9          -2.2510     0.0150    -0.5830 nd         1 I15      -0.470100
     10 C10         -0.6150     0.0210    -2.5020 c3         1 I15      -0.117400
     11 C11          2.8970     1.0190    -1.6430 ca         1 I15       0.115100
     12 C12          1.4200     0.0210     2.4150 ca         1 I15      -0.090000
     13 C13          2.3280     2.2600    -1.9080 ca         1 I15      -0.097000
     14 C14          4.2840     0.8080    -1.8630 ca         1 I15      -0.097000
     15 C15          3.0560     3.2980    -2.3550 ca         1 I15       0.028000
     16 C16          4.9880     1.9200    -2.3220 ca         1 I15       0.028000
     17 C17          4.4240     3.1680    -2.5310 ca         1 I15      -0.076000
     18 C18          2.3860     4.5310    -2.5050 cg         1 I15       0.214800
     19 C19          6.4960     1.6850    -3.0300 cg         1 I15       0.214800
     20 N23          7.6040     1.0770    -3.2570 n1         1 I15      -0.352300
     21 F1           3.6120    -0.0210     1.1270 f          1 I15      -0.138900
     22 N1           1.8430     5.4970    -2.6130 n1         1 I15      -0.352300
     23 H7          -2.8810     0.0770     1.3840 hn         1 I15       0.323700
     24 H8          -0.5310     0.0530     3.3270 ha         1 I15       0.142000
     25 H101        -1.1960    -0.7190    -3.0390 hc         1 I15       0.062700
     26 H102        -0.8140     1.0040    -2.9120 hc         1 I15       0.062700
     27 H103         0.4390    -0.2060    -2.6020 hc         1 I15       0.062700
     28 H12          1.9330     0.0220     3.3690 ha         1 I15       0.158000
     29 H13          1.3560     2.5090    -1.5000 ha         1 I15       0.168500
     30 H14          4.7550    -0.1030    -1.5140 ha         1 I15       0.168500
     31 H17          5.0060     4.0070    -2.8910 ha         1 I15       0.166000
@<TRIPOS>BOND
     1     1     2 ar
     2     1     3 ar
     3     1     4 1
     4     2     5 1
     5     2     6 ar
     6     3     7 1
     7     3     8 ar
     8     4     9 2
     9     4    10 1
    10     5    11 1
    11     6    12 ar
    12     6    21 1
    13     7     9 1
    14     8    12 ar
    15    11    13 ar
    16    11    14 ar
    17    13    15 ar
    18    14    16 ar
    19    15    17 ar
    20    15    18 1
    21    16    17 ar
    22    16    19 1
    23    18    22 3
    24    19    20 3
    25     7    23 1
    26     8    24 1
    27    10    25 1
    28    10    26 1
    29    10    27 1
    30    12    28 1
    31    13    29 1
    32    14    30 1
    33    17    31 1
@<TRIPOS>SUBSTRUCTURE
     1 I15         1 TEMP              0 ****  ****    0 ROOT
