@<TRIPOS>MOLECULE
I15
   31    33     1     0     0
SMALL
bcc


@<TRIPOS>ATOM
      1 C1           0.0000     0.0000     0.0000 ca         1 I15      -0.236900
      2 C2           1.4060     0.0000     0.0000 ca         1 I15       0.167100
      3 C3          -0.7190     0.0290     1.2120 ca         1 I15      -0.158200
      4 C4          -0.9840    -0.0010    -1.0950 cc         1 I15       0.394900
      5 O5           2.0560    -0.0180    -1.2240 os         1 I15      -0.247200
      6 C6           2.1790     0.0000     1.1900 ca         1 I15       0.034900
      7 N7          -2.0780     0.0530     0.7870 na         1 I15       0.407900
      8 C8          -0.0110     0.0310     2.3770 ca         1 I15      -0.093000
      9 N9          -2.2510     0.0150    -0.5830 nd         1 I15      -0.623100
     10 C10         -0.6150     0.0210    -2.5020 c3         1 I15      -0.026400
     11 C11          2.8970     1.0190    -1.6430 ca         1 I15       0.128100
     12 C12          1.4200     0.0210     2.4150 ca         1 I15      -0.055000
     13 C13          2.3280     2.2600    -1.9080 ca         1 I15      -0.094000
     14 C14          4.2840     0.8080    -1.8630 ca         1 I15      -0.094000
     15 C15          3.0560     3.2980    -2.3550 ca         1 I15       0.086000
     16 C16          4.9880     1.9200    -2.3220 ca         1 I15       0.086000
     17 C17          4.4240     3.1680    -2.5310 ca         1 I15      -0.076000
     18 C18          2.3860     4.5310    -2.5050 cg         1 I15       0.212300
     19 C19          6.4960     1.6850    -3.0300 cg         1 I15       0.212300
     20 N23          7.6040     1.0770    -3.2570 n1         1 I15      -0.377800
     21 F1           3.6120    -0.0210     1.1270 f          1 I15      -0.138900
     22 N1           1.8430     5.4970    -2.6130 n1         1 I15      -0.377800
     23 H7          -2.8810     0.0770     1.3840 hn         1 I15       0.146700
     24 H8          -0.5310     0.0530     3.3270 ha         1 I15       0.109000
     25 H101        -1.1960    -0.7190    -3.0390 hc         1 I15       0.027033
     26 H102        -0.8140     1.0040    -2.9120 hc         1 I15       0.027033
     27 H103         0.4390    -0.2060    -2.6020 hc         1 I15       0.027033
     28 H12          1.9330     0.0220     3.3690 ha         1 I15       0.121000
     29 H13          1.3560     2.5090    -1.5000 ha         1 I15       0.139000
     30 H14          4.7550    -0.1030    -1.5140 ha         1 I15       0.139000
     31 H17          5.0060     4.0070    -2.8910 ha         1 I15       0.136000
@<TRIPOS>BOND
     1     1     2 ar  
     2     1     3 ar  
     3     1     4 1   
     4     2     5 1   
     5     2     6 ar  
     6     3     7 1   
     7     3     8 ar  
     8     4     9 2   
     9     4    10 1   
    10     5    11 1   
    11     6    12 ar  
    12     6    21 1   
    13     7     9 1   
    14     7    23 1   
    15     8    12 ar  
    16     8    24 1   
    17    10    25 1   
    18    10    26 1   
    19    10    27 1   
    20    11    13 ar  
    21    11    14 ar  
    22    12    28 1   
    23    13    15 ar  
    24    13    29 1   
    25    14    16 ar  
    26    14    30 1   
    27    15    17 ar  
    28    15    18 1   
    29    16    17 ar  
    30    16    19 1   
    31    17    31 1   
    32    18    22 3   
    33    19    20 3   
@<TRIPOS>SUBSTRUCTURE
     1 I15         1 TEMP              0 ****  ****    0 ROOT
