@<TRIPOS>MOLECULE
I17
   62    66     1     0     0
SMALL
bcc


@<TRIPOS>ATOM
      1 C26          0.0000     0.0000     0.0000 c3         1 I17      -0.070000
      2 N9          -0.5020     1.2000    -0.6750 na         1 I17       0.241000
      3 C4          -1.3000     1.2320    -1.7890 ca         1 I17       0.299800
      4 N3          -1.8500     0.3110    -2.5730 nb         1 I17      -0.730000
      5 C2          -2.5910     0.6650    -3.6110 ca         1 I17       0.765900
      6 C6          -2.3210     2.9200    -3.1780 ca         1 I17       0.639200
      7 N1          -2.8270     1.9350    -3.9100 nb         1 I17      -0.816000
      8 C5          -1.5230     2.5890    -2.0680 ca         1 I17      -0.274200
      9 N7          -0.8610     3.3050    -1.1270 nc         1 I17      -0.493100
     10 C8          -0.2610     2.4920    -0.3070 cd         1 I17       0.226700
     11 N18         -2.5730     4.2420    -3.4970 nu         1 I17      -0.462900
     12 C19         -3.4060     4.5680    -4.6580 c3         1 I17       0.226100
     13 C25         -2.6040     6.7680    -5.5400 ca         1 I17      -0.084500
     14 C24         -2.7130     8.1410    -5.6590 ca         1 I17      -0.097500
     15 C23         -3.7410     8.8100    -5.0220 ca         1 I17      -0.083000
     16 C22         -4.6610     8.1060    -4.2690 ca         1 I17      -0.097500
     17 C21         -4.5560     6.7330    -4.1550 ca         1 I17      -0.084500
     18 C20         -3.5250     6.0640    -4.7860 ca         1 I17      -0.140300
     19 N10         -3.1420    -0.3250    -4.4080 nu         1 I17      -0.502900
     20 C11         -3.9700     0.0400    -5.5590 c3         1 I17       0.137500
     21 C14         -6.1660    -0.5450    -7.4090 c3         1 I17      -0.088500
     22 C15         -4.7040    -0.6520    -7.8460 c3         1 I17      -0.021900
     23 C16         -3.8390    -1.0320    -6.6430 c3         1 I17      -0.033400
     24 C12         -5.4320     0.1460    -5.1230 c3         1 I17      -0.033400
     25 C13         -6.2980     0.5280    -6.3260 c3         1 I17      -0.021900
     26 N17         -6.9970    -0.1800    -8.5640 nz         1 I17       0.076400
     27 C30          1.5380     0.0000     0.0000 c3         1 I17      -0.040900
     28 C29          1.9780     0.0000     1.4790 c3         1 I17      -0.021900
     29 C27         -0.4410     0.0020     1.4780 c3         1 I17      -0.040900
     30 C28          0.7690    -0.6000     2.2360 c3         1 I17      -0.021900
     31 H261        -0.3690    -0.8910    -0.4940 h1         1 I17       0.063700
     32 H81          0.3100     2.9210     0.5080 h5         1 I17       0.045800
     33 H181        -2.1570     4.9750    -2.9570 hn         1 I17       0.321800
     34 H191        -4.3910     4.1370    -4.5270 h1         1 I17       0.016200
     35 H192        -2.9510     4.1640    -5.5540 h1         1 I17       0.016200
     36 H231        -3.8250     9.8860    -5.1130 ha         1 I17       0.109000
     37 H221        -5.4680     8.6310    -3.7720 ha         1 I17       0.109500
     38 H211        -5.2780     6.1820    -3.5640 ha         1 I17       0.106000
     39 H101        -2.9560    -1.2880    -4.2100 hn         1 I17       0.304800
     40 H111        -3.6440     0.9940    -5.9570 h1         1 I17       0.065700
     41 H141        -6.4920    -1.4980    -7.0110 hx         1 I17       0.094700
     42 H151        -4.6120    -1.4140    -8.6100 hc         1 I17       0.032950
     43 H152        -4.3750     0.3020    -8.2380 hc         1 I17       0.032950
     44 H161        -4.1710    -1.9850    -6.2480 hc         1 I17       0.043450
     45 H162        -2.8040    -1.1050    -6.9530 hc         1 I17       0.043450
     46 H121        -5.7610    -0.8080    -4.7310 hc         1 I17       0.043450
     47 H122        -5.5250     0.9080    -4.3580 hc         1 I17       0.043450
     48 H131        -5.9660     1.4810    -6.7210 hc         1 I17       0.032950
     49 H132        -7.3330     0.6000    -6.0150 hc         1 I17       0.032950
     50 H171        -6.9240    -0.8880    -9.2670 hn         1 I17       0.223467
     51 H172        -6.6820     0.6940    -8.9380 hn         1 I17       0.223467
     52 H301         1.9080     0.8900    -0.4950 hc         1 I17       0.027700
     53 H302         1.9080    -0.8890    -0.4960 hc         1 I17       0.027700
     54 H291         2.1700     1.0120     1.8150 hc         1 I17       0.022950
     55 H292         2.8540    -0.6240     1.6120 hc         1 I17       0.022950
     56 H271        -0.6310     1.0140     1.8140 hc         1 I17       0.027700
     57 H272        -1.3170    -0.6210     1.6110 hc         1 I17       0.027700
     58 H281         0.7680    -1.6810     2.1600 hc         1 I17       0.022950
     59 H282         0.7690    -0.2800     3.2710 hc         1 I17       0.022950
     60 H251        -1.7980     6.2440    -6.0390 ha         1 I17       0.106000
     61 H173        -7.9490    -0.0770    -8.2720 hn         1 I17       0.223467
     62 H241        -1.9920     8.6930    -6.2500 ha         1 I17       0.109500
@<TRIPOS>BOND
     1     1     2 1   
     2     1    27 1   
     3     1    29 1   
     4     1    31 1   
     5     2     3 1   
     6     2    10 1   
     7     3     4 ar  
     8     3     8 ar  
     9     4     5 ar  
    10     5     7 ar  
    11     5    19 1   
    12     6     7 ar  
    13     6     8 ar  
    14     6    11 1   
    15     8     9 1   
    16     9    10 2   
    17    10    32 1   
    18    11    12 1   
    19    11    33 1   
    20    12    18 1   
    21    12    34 1   
    22    12    35 1   
    23    13    14 ar  
    24    13    18 ar  
    25    13    60 1   
    26    14    15 ar  
    27    14    62 1   
    28    15    16 ar  
    29    15    36 1   
    30    16    17 ar  
    31    16    37 1   
    32    17    18 ar  
    33    17    38 1   
    34    19    20 1   
    35    19    39 1   
    36    20    23 1   
    37    20    24 1   
    38    20    40 1   
    39    21    22 1   
    40    21    25 1   
    41    21    26 1   
    42    21    41 1   
    43    22    23 1   
    44    22    42 1   
    45    22    43 1   
    46    23    44 1   
    47    23    45 1   
    48    24    25 1   
    49    24    46 1   
    50    24    47 1   
    51    25    48 1   
    52    25    49 1   
    53    26    50 1   
    54    26    51 1   
    55    26    61 1   
    56    27    28 1   
    57    27    52 1   
    58    27    53 1   
    59    28    30 1   
    60    28    54 1   
    61    28    55 1   
    62    29    30 1   
    63    29    56 1   
    64    29    57 1   
    65    30    58 1   
    66    30    59 1   
@<TRIPOS>SUBSTRUCTURE
     1 I17         1 TEMP              0 ****  ****    0 ROOT
