@<TRIPOS>MOLECULE
I18
   34    36     1     0     0
SMALL
bcc


@<TRIPOS>ATOM
      1 N1           0.0000     0.0000     0.0000 nu         1 I18      -0.520200
      2 C5           1.4730     0.0000     0.0000 c3         1 I18       0.171800
      3 C51          2.0050    -1.2410    -0.6700 ca         1 I18      -0.111300
      4 C4           1.8220     0.0000     1.5020 c3         1 I18       0.197800
      5 C41          2.5990    -1.2380     1.8660 ca         1 I18      -0.077300
      6 N3           0.5110     0.0010     2.1680 n2         1 I18      -0.641900
      7 C2          -0.4280     0.0060     1.2940 c2         1 I18       0.462200
      8 C21         -1.8870     0.0080     1.6680 c3         1 I18      -0.011400
      9 C56          1.3690    -2.4540    -0.4820 ca         1 I18      -0.081000
     10 C55          1.8580    -3.5920    -1.0960 ca         1 I18      -0.097500
     11 C54          2.9820    -3.5170    -1.8990 ca         1 I18      -0.028600
     12 Cl5          3.5950    -4.9450    -2.6710 cl         1 I18      -0.024400
     13 C53          3.6170    -2.3020    -2.0870 ca         1 I18      -0.097500
     14 C52          3.1250    -1.1630    -1.4760 ca         1 I18      -0.081000
     15 C42          3.9740    -1.1780     1.9940 ca         1 I18      -0.079000
     16 C43          4.6870    -2.3140     2.3270 ca         1 I18      -0.101500
     17 C44          4.0250    -3.5120     2.5320 ca         1 I18      -0.030600
     18 Cl4          4.9200    -4.9390     2.9500 cl         1 I18      -0.033400
     19 C45          2.6490    -3.5720     2.4020 ca         1 I18      -0.101500
     20 C46          1.9360    -2.4340     2.0740 ca         1 I18      -0.079000
     21 H1          -0.5860     0.0020    -0.8110 hn         1 I18       0.315800
     22 H2           1.8530     0.8940    -0.4790 h1         1 I18       0.036700
     23 H3           2.3770     0.8940     1.7600 h1         1 I18       0.044700
     24 H4          -2.3850    -0.8240     1.1850 hc         1 I18       0.018367
     25 H5          -1.9850    -0.0870     2.7430 hc         1 I18       0.018367
     26 H6          -2.3410     0.9370     1.3450 hc         1 I18       0.018367
     27 H7           0.4890    -2.5120     0.1470 ha         1 I18       0.114500
     28 H8           1.3590    -4.5430    -0.9490 ha         1 I18       0.116000
     29 H9           4.4960    -2.2420    -2.7170 ha         1 I18       0.116000
     30 H10          3.6220    -0.2120    -1.6230 ha         1 I18       0.114500
     31 H11          4.4920    -0.2400     1.8350 ha         1 I18       0.112500
     32 H12          5.7650    -2.2660     2.4290 ha         1 I18       0.113500
     33 H13          2.1300    -4.5090     2.5630 ha         1 I18       0.113500
     34 H14          0.8590    -2.4800     1.9720 ha         1 I18       0.112500
@<TRIPOS>BOND
     1     1     2 1   
     2     1     7 1   
     3     1    21 1   
     4     2     3 1   
     5     2     4 1   
     6     2    22 1   
     7     3     9 ar  
     8     3    14 ar  
     9     4     5 1   
    10     4     6 1   
    11     4    23 1   
    12     5    15 ar  
    13     5    20 ar  
    14     6     7 2   
    15     7     8 1   
    16     8    24 1   
    17     8    25 1   
    18     8    26 1   
    19     9    10 ar  
    20     9    27 1   
    21    10    11 ar  
    22    10    28 1   
    23    11    12 1   
    24    11    13 ar  
    25    13    14 ar  
    26    13    29 1   
    27    14    30 1   
    28    15    16 ar  
    29    15    31 1   
    30    16    17 ar  
    31    16    32 1   
    32    17    18 1   
    33    17    19 ar  
    34    19    20 ar  
    35    19    33 1   
    36    20    34 1   
@<TRIPOS>SUBSTRUCTURE
     1 I18         1 TEMP              0 ****  ****    0 ROOT
