@<TRIPOS>MOLECULE
molecule
   34    36     1     0     0
SMALL
bcc


@<TRIPOS>ATOM
      1 N1           0.0000     0.0000     0.0000 nu         1 I18      -0.918200
      2 C5           1.4730     0.0000     0.0000 c3         1 I18       0.250800
      3 C51          2.0050    -1.2410    -0.6700 ca         1 I18      -0.101300
      4 C4           1.8220     0.0000     1.5020 c3         1 I18       0.164800
      5 C41          2.5990    -1.2380     1.8660 ca         1 I18      -0.068300
      6 N3           0.5110     0.0010     2.1680 n2         1 I18      -0.667900
      7 C2          -0.4280     0.0060     1.2940 c2         1 I18       0.605200
      8 C21         -1.8870     0.0080     1.6680 c3         1 I18      -0.117400
      9 C56          1.3690    -2.4540    -0.4820 ca         1 I18      -0.104500
     10 C55          1.8580    -3.5920    -1.0960 ca         1 I18      -0.122000
     11 C54          2.9820    -3.5170    -1.8990 ca         1 I18       0.035400
     12 Cl5          3.5950    -4.9450    -2.6710 cl         1 I18      -0.107400
     13 C53          3.6170    -2.3020    -2.0870 ca         1 I18      -0.122000
     14 C52          3.1250    -1.1630    -1.4760 ca         1 I18      -0.104500
     15 C42          3.9740    -1.1780     1.9940 ca         1 I18      -0.102500
     16 C43          4.6870    -2.3140     2.3270 ca         1 I18      -0.124000
     17 C44          4.0250    -3.5120     2.5320 ca         1 I18       0.032400
     18 Cl4          4.9200    -4.9390     2.9500 cl         1 I18      -0.113400
     19 C45          2.6490    -3.5720     2.4020 ca         1 I18      -0.124000
     20 C46          1.9360    -2.4340     2.0740 ca         1 I18      -0.102500
     21 H1          -0.5860     0.0020    -0.8110 hn         1 I18       0.456800
     22 H2           1.8530     0.8940    -0.4790 h1         1 I18       0.065700
     23 H3           2.3770     0.8940     1.7600 h1         1 I18       0.082700
     24 H4          -2.3850    -0.8240     1.1850 hc         1 I18       0.059700
     25 H5          -1.9850    -0.0870     2.7430 hc         1 I18       0.059700
     26 H6          -2.3410     0.9370     1.3450 hc         1 I18       0.059700
     27 H7           0.4890    -2.5120     0.1470 ha         1 I18       0.139500
     28 H8           1.3590    -4.5430    -0.9490 ha         1 I18       0.145000
     29 H9           4.4960    -2.2420    -2.7170 ha         1 I18       0.145000
     30 H10          3.6220    -0.2120    -1.6230 ha         1 I18       0.139500
     31 H11          4.4920    -0.2400     1.8350 ha         1 I18       0.138000
     32 H12          5.7650    -2.2660     2.4290 ha         1 I18       0.142500
     33 H13          2.1300    -4.5090     2.5630 ha         1 I18       0.142500
     34 H14          0.8590    -2.4800     1.9720 ha         1 I18       0.138000
@<TRIPOS>BOND
     1     8     7 1
     2     7     1 1
     3     7     6 2
     4     1     2 1
     5     9    10 ar
     6     9     3 ar
     7     6     4 1
     8    10    11 ar
     9     2     3 1
    10     2     4 1
    11     3    14 ar
    12    11    12 1
    13    11    13 ar
    14    20    19 ar
    15    20     5 ar
    16     4     5 1
    17    19    17 ar
    18    14    13 ar
    19     5    15 ar
    20    17    18 1
    21    17    16 ar
    22    15    16 ar
    23     1    21 1
    24     2    22 1
    25     4    23 1
    26     8    24 1
    27     8    25 1
    28     8    26 1
    29     9    27 1
    30    10    28 1
    31    13    29 1
    32    14    30 1
    33    15    31 1
    34    16    32 1
    35    19    33 1
    36    20    34 1
@<TRIPOS>SUBSTRUCTURE
     1 I18         1 TEMP              0 ****  ****    0 ROOT
