@<TRIPOS>MOLECULE
molecule
   63    66     1     0     0
SMALL
bcc


@<TRIPOS>ATOM
      1 C1           0.0000     0.0000     0.0000 c3         1 I19      -0.106100
      2 C2           1.5150     0.0000     0.0000 c3         1 I19       0.024000
      3 C3           2.1070     0.0000     1.4000 c3         1 I19      -0.106100
      4 N1           1.9740    -1.0930    -0.8390 na         1 I19      -0.155900
      5 C4           1.6960    -2.3850    -0.6110 cc         1 I19       0.438800
      6 C5           0.9210    -2.9830     0.5190 c3         1 I19      -0.107400
      7 N2           2.2520    -3.0710    -1.6080 nd         1 I19      -0.726000
      8 C6           2.9050    -2.2340    -2.4950 cd         1 I19       0.373200
      9 C7           2.7330    -0.9560    -2.0110 cc         1 I19      -0.320100
     10 C8           3.2890     0.2850    -2.6400 ca         1 I19       0.552800
     11 N3           3.5660     1.3250    -1.8430 nb         1 I19      -0.732000
     12 C9           4.0520     2.4310    -2.4240 ca         1 I19       0.905900
     13 N4           4.3830     3.5880    -1.6900 nu         1 I19      -0.762300
     14 C10          3.8410     4.1340    -0.5150 ca         1 I19       0.211600
     15 C11          2.7690     3.5910     0.1590 ca         1 I19      -0.187500
     16 C12          2.2910     4.1920     1.3070 ca         1 I19      -0.057000
     17 C13          2.9020     5.3380     1.7800 ca         1 I19      -0.172600
     18 C14          3.9710     5.9200     1.1240 ca         1 I19      -0.057000
     19 C15          4.4240     5.2930    -0.0260 ca         1 I19      -0.187500
     20 C16          2.4040     6.0080     2.9720 c          1 I19       0.668700
     21 O1           2.0600     7.1720     2.8180 o          1 I19      -0.586100
     22 N5           2.3660     5.3640     4.1850 n          1 I19      -0.453800
     23 C17          2.2000     3.9500     4.3860 c3         1 I19       0.107000
     24 C18          1.8570     3.8240     5.8660 c3         1 I19      -0.100400
     25 C19          1.3240     5.1800     6.3150 c3         1 I19       0.159500
     26 C20          1.7760     6.1410     5.2510 c3         1 I19       0.077000
     27 N6          -0.1770     5.2190     6.2940 n3         1 I19      -0.739600
     28 C21         -0.8550     3.9460     6.6610 c3         1 I19       0.148600
     29 C22         -0.7030     6.3090     7.1660 c3         1 I19       0.148600
     30 N7           4.2830     2.5440    -3.7400 nb         1 I19      -0.735000
     31 C23          4.0000     1.4970    -4.5100 ca         1 I19       0.440200
     32 C24          3.4950     0.3360    -4.0070 ca         1 I19      -0.127700
     33 F1           3.2340    -0.6650    -4.8620 f          1 I19      -0.116900
     34 H11C        -0.3610    -0.4950     0.8930 hc         1 I19       0.048867
     35 H12C        -0.3610     1.0210    -0.0170 hc         1 I19       0.048867
     36 H13C        -0.3610    -0.5260    -0.8760 hc         1 I19       0.048867
     37 H2           1.8330     0.9200    -0.4760 h1         1 I19       0.086700
     38 H31C         1.4110     0.4670     2.0870 hc         1 I19       0.048867
     39 H32C         2.2940    -1.0200     1.7130 hc         1 I19       0.048867
     40 H33C         3.0390     0.5530     1.3980 hc         1 I19       0.048867
     41 H51C         1.2960    -2.5970     1.4590 hc         1 I19       0.059367
     42 H52C        -0.1260    -2.7250     0.4150 hc         1 I19       0.059367
     43 H53C         1.0300    -4.0610     0.5020 hc         1 I19       0.059367
     44 H6           3.4410    -2.5250    -3.3910 h4         1 I19       0.058100
     45 H4           5.1410     4.1150    -2.0760 hn         1 I19       0.455800
     46 H11          2.2950     2.6930    -0.2170 ha         1 I19       0.139000
     47 H15          5.2600     5.7240    -0.5620 ha         1 I19       0.139000
     48 H12          1.4510     3.7610     1.8390 ha         1 I19       0.146000
     49 H14          4.4410     6.8210     1.4980 ha         1 I19       0.146000
     50 H171         3.1220     3.4260     4.1650 h1         1 I19       0.045200
     51 H172         1.3860     3.5750     3.7760 h1         1 I19       0.045200
     52 H201         0.9250     6.6960     4.8730 h1         1 I19       0.067200
     53 H202         2.5130     6.8210     5.6610 h1         1 I19       0.067200
     54 H181         2.7470     3.5720     6.4300 hc         1 I19       0.058700
     55 H182         1.0970     3.0650     6.0050 hc         1 I19       0.058700
     56 H19          1.7190     5.4570     7.2850 h1         1 I19       0.050700
     57 H211        -0.8480     3.2740     5.8110 h1         1 I19       0.034200
     58 H212        -1.8790     4.1520     6.9490 h1         1 I19       0.034200
     59 H213        -0.3320     3.4840     7.4900 h1         1 I19       0.034200
     60 H221        -0.6230     6.0110     8.2040 h1         1 I19       0.034200
     61 H222        -0.1250     7.2110     7.0040 h1         1 I19       0.034200
     62 H223        -1.7410     6.4970     6.9220 h1         1 I19       0.034200
     63 H23          4.1770     1.5700    -5.5770 h4         1 I19       0.043100
@<TRIPOS>BOND
     1     1     2 1
     2     2     3 1
     3     2     4 1
     4     4     5 1
     5     4     9 1
     6     5     6 1
     7     5     7 2
     8     7     8 1
     9     8     9 2
    10     9    10 1
    11    10    11 ar
    12    10    32 ar
    13    11    12 ar
    14    12    13 1
    15    12    30 ar
    16    13    14 1
    17    14    15 ar
    18    14    19 ar
    19    15    16 ar
    20    16    17 ar
    21    17    18 ar
    22    17    20 1
    23    18    19 ar
    24    20    21 2
    25    20    22 1
    26    22    23 1
    27    22    26 1
    28    23    24 1
    29    24    25 1
    30    25    26 1
    31    25    27 1
    32    27    28 1
    33    27    29 1
    34    30    31 ar
    35    31    32 ar
    36    32    33 1
    37     1    34 1
    38     1    35 1
    39     1    36 1
    40     2    37 1
    41     3    38 1
    42     3    39 1
    43     3    40 1
    44     6    41 1
    45     6    42 1
    46     6    43 1
    47     8    44 1
    48    13    45 1
    49    15    46 1
    50    19    47 1
    51    16    48 1
    52    18    49 1
    53    23    50 1
    54    23    51 1
    55    26    52 1
    56    26    53 1
    57    24    54 1
    58    24    55 1
    59    25    56 1
    60    28    57 1
    61    28    58 1
    62    28    59 1
    63    29    60 1
    64    29    61 1
    65    29    62 1
    66    31    63 1
@<TRIPOS>SUBSTRUCTURE
     1 I19         1 TEMP              0 ****  ****    0 ROOT
