@<TRIPOS>MOLECULE
I19
   63    66     1     0     0
SMALL
bcc


@<TRIPOS>ATOM
      1 C1           0.0000     0.0000     0.0000 c3         1 I19      -0.012600
      2 C2           1.5150     0.0000     0.0000 c3         1 I19      -0.117000
      3 C3           2.1070     0.0000     1.4000 c3         1 I19      -0.012600
      4 N1           1.9740    -1.0930    -0.8390 na         1 I19       0.348100
      5 C4           1.6960    -2.3850    -0.6110 cc         1 I19       0.231800
      6 C5           0.9210    -2.9830     0.5190 c3         1 I19      -0.001400
      7 N2           2.2520    -3.0710    -1.6080 nd         1 I19      -0.665000
      8 C6           2.9050    -2.2340    -2.4950 cd         1 I19       0.385200
      9 C7           2.7330    -0.9560    -2.0110 cc         1 I19      -0.517100
     10 C8           3.2890     0.2850    -2.6400 ca         1 I19       0.551800
     11 N3           3.5660     1.3250    -1.8430 nb         1 I19      -0.654000
     12 C9           4.0520     2.4310    -2.4240 ca         1 I19       0.696900
     13 N4           4.3830     3.5880    -1.6900 nu         1 I19      -0.305300
     14 C10          3.8410     4.1340    -0.5150 ca         1 I19       0.050600
     15 C11          2.7690     3.5910     0.1590 ca         1 I19      -0.166000
     16 C12          2.2910     4.1920     1.3070 ca         1 I19      -0.024500
     17 C13          2.9020     5.3380     1.7800 ca         1 I19      -0.185600
     18 C14          3.9710     5.9200     1.1240 ca         1 I19      -0.024500
     19 C15          4.4240     5.2930    -0.0260 ca         1 I19      -0.166000
     20 C16          2.4040     6.0080     2.9720 c          1 I19       0.612700
     21 O1           2.0600     7.1720     2.8180 o          1 I19      -0.621100
     22 N5           2.3660     5.3640     4.1850 n          1 I19      -0.143800
     23 C17          2.2000     3.9500     4.3860 c3         1 I19       0.063000
     24 C18          1.8570     3.8240     5.8660 c3         1 I19      -0.054400
     25 C19          1.3240     5.1800     6.3150 c3         1 I19       0.131500
     26 C20          1.7760     6.1410     5.2510 c3         1 I19       0.019000
     27 N6          -0.1770     5.2190     6.2940 n3         1 I19      -0.567600
     28 C21         -0.8550     3.9460     6.6610 c3         1 I19       0.186600
     29 C22         -0.7030     6.3090     7.1660 c3         1 I19       0.186600
     30 N7           4.2830     2.5440    -3.7400 nb         1 I19      -0.654000
     31 C23          4.0000     1.4970    -4.5100 ca         1 I19       0.445200
     32 C24          3.4950     0.3360    -4.0070 ca         1 I19      -0.150700
     33 F1           3.2340    -0.6650    -4.8620 f          1 I19      -0.102900
     34 H11C        -0.3610    -0.4950     0.8930 hc         1 I19       0.018533
     35 H12C        -0.3610     1.0210    -0.0170 hc         1 I19       0.018533
     36 H13C        -0.3610    -0.5260    -0.8760 hc         1 I19       0.018533
     37 H2           1.8330     0.9200    -0.4760 h1         1 I19       0.069700
     38 H31C         1.4110     0.4670     2.0870 hc         1 I19       0.018533
     39 H32C         2.2940    -1.0200     1.7130 hc         1 I19       0.018533
     40 H33C         3.0390     0.5530     1.3980 hc         1 I19       0.018533
     41 H51C         1.2960    -2.5970     1.4590 hc         1 I19       0.018700
     42 H52C        -0.1260    -2.7250     0.4150 hc         1 I19       0.018700
     43 H53C         1.0300    -4.0610     0.5020 hc         1 I19       0.018700
     44 H6           3.4410    -2.5250    -3.3910 h4         1 I19       0.017100
     45 H4           5.1410     4.1150    -2.0760 hn         1 I19       0.287800
     46 H11          2.2950     2.6930    -0.2170 ha         1 I19       0.117000
     47 H15          5.2600     5.7240    -0.5620 ha         1 I19       0.117000
     48 H12          1.4510     3.7610     1.8390 ha         1 I19       0.115000
     49 H14          4.4410     6.8210     1.4980 ha         1 I19       0.115000
     50 H171         3.1220     3.4260     4.1650 h1         1 I19       0.017700
     51 H172         1.3860     3.5750     3.7760 h1         1 I19       0.017700
     52 H201         0.9250     6.6960     4.8730 h1         1 I19       0.041200
     53 H202         2.5130     6.8210     5.6610 h1         1 I19       0.041200
     54 H181         2.7470     3.5720     6.4300 hc         1 I19       0.033200
     55 H182         1.0970     3.0650     6.0050 hc         1 I19       0.033200
     56 H19          1.7190     5.4570     7.2850 h1         1 I19       0.029700
     57 H211        -0.8480     3.2740     5.8110 h1         1 I19       0.003200
     58 H212        -1.8790     4.1520     6.9490 h1         1 I19       0.003200
     59 H213        -0.3320     3.4840     7.4900 h1         1 I19       0.003200
     60 H221        -0.6230     6.0110     8.2040 h1         1 I19       0.003200
     61 H222        -0.1250     7.2110     7.0040 h1         1 I19       0.003200
     62 H223        -1.7410     6.4970     6.9220 h1         1 I19       0.003200
     63 H23          4.1770     1.5700    -5.5770 h4         1 I19      -0.004900
@<TRIPOS>BOND
     1     1     2 1   
     2     1    34 1   
     3     1    35 1   
     4     1    36 1   
     5     2     3 1   
     6     2     4 1   
     7     2    37 1   
     8     3    38 1   
     9     3    39 1   
    10     3    40 1   
    11     4     5 1   
    12     4     9 1   
    13     5     6 1   
    14     5     7 2   
    15     6    41 1   
    16     6    42 1   
    17     6    43 1   
    18     7     8 1   
    19     8     9 2   
    20     8    44 1   
    21     9    10 1   
    22    10    11 ar  
    23    10    32 ar  
    24    11    12 ar  
    25    12    13 1   
    26    12    30 ar  
    27    13    14 1   
    28    13    45 1   
    29    14    15 ar  
    30    14    19 ar  
    31    15    16 ar  
    32    15    46 1   
    33    16    17 ar  
    34    16    48 1   
    35    17    18 ar  
    36    17    20 1   
    37    18    19 ar  
    38    18    49 1   
    39    19    47 1   
    40    20    21 2   
    41    20    22 1   
    42    22    23 1   
    43    22    26 1   
    44    23    24 1   
    45    23    50 1   
    46    23    51 1   
    47    24    25 1   
    48    24    54 1   
    49    24    55 1   
    50    25    26 1   
    51    25    27 1   
    52    25    56 1   
    53    26    52 1   
    54    26    53 1   
    55    27    28 1   
    56    27    29 1   
    57    28    57 1   
    58    28    58 1   
    59    28    59 1   
    60    29    60 1   
    61    29    61 1   
    62    29    62 1   
    63    30    31 ar  
    64    31    32 ar  
    65    31    63 1   
    66    32    33 1   
@<TRIPOS>SUBSTRUCTURE
     1 I19         1 TEMP              0 ****  ****    0 ROOT
