@<TRIPOS>MOLECULE
I1E
   20    20     1     0     0
SMALL
bcc


@<TRIPOS>ATOM
      1 C1         -0.0200    0.0000    0.0010 ca        1 I1E     -0.083000
      2 C2          1.3730   -0.0010   -0.0180 ca        1 I1E     -0.145000
      3 C3          2.0910   -0.0020    1.1790 ca        1 I1E     -0.102000
      4 C4          1.4120   -0.0030    2.3970 ca        1 I1E     -0.145000
      5 C5          0.0190   -0.0030    2.4180 ca        1 I1E     -0.083000
      6 C6         -0.7100   -0.0010    1.2200 ca        1 I1E     -0.176600
      7 C7         -2.1880    0.0000    1.2890 c         1 I1E      0.575700
      8 O7         -2.7790   -0.0090    2.3760 o         1 I1E     -0.535100
      9 C8         -2.9330    0.0120   -0.0180 c3        1 I1E     -0.176400
     10 C9         -4.4280    0.0190    0.1670 c3        1 I1E     -0.088100
     11 H1         -0.5700    0.0020   -0.9530 ha        1 I1E      0.145000
     12 H2          1.9070    0.0000   -0.9790 ha        1 I1E      0.136500
     13 H3          3.1910   -0.0030    1.1600 ha        1 I1E      0.135000
     14 H4          1.9750   -0.0050    3.3420 ha        1 I1E      0.136500
     15 H5         -0.5270   -0.0040    3.3760 ha        1 I1E      0.145000
     16 H8         -2.6260   -0.8930   -0.6080 hc        1 I1E      0.064700
     17 H7         -2.6160    0.9210   -0.5970 hc        1 I1E      0.064700
     18 H9         -4.9380    0.0280   -0.8260 hc        1 I1E      0.043700
     19 H9A        -4.7550   -0.8860    0.7340 hc        1 I1E      0.043700
     20 H10        -4.7460    0.9200    0.7450 hc        1 I1E      0.043700
@<TRIPOS>BOND
     1    1    2 ar  
     2    1    6 ar  
     3    1   11 1   
     4    2    3 ar  
     5    2   12 1   
     6    3    4 ar  
     7    3   13 1   
     8    4    5 ar  
     9    4   14 1   
    10    5    6 ar  
    11    5   15 1   
    12    6    7 1   
    13    7    8 2   
    14    7    9 1   
    15    9   10 1   
    16    9   16 1   
    17    9   17 1   
    18   10   18 1   
    19   10   19 1   
    20   10   20 1   
@<TRIPOS>SUBSTRUCTURE
     1 I1E         1 TEMP              0 ****  ****    0 ROOT
