@<TRIPOS>MOLECULE
molecule
   20    20     1     0     0
SMALL
bcc


@<TRIPOS>ATOM
      1 C1           0.0000     0.0000     0.0000 ca         1 I1E      -0.079500
      2 C2           1.3800     0.0000     0.0000 ca         1 I1E      -0.143000
      3 C3           2.0750     0.0000     1.1970 ca         1 I1E      -0.100000
      4 C4           1.3930     0.0000     2.4020 ca         1 I1E      -0.143000
      5 C5           0.0140     0.0000     2.4180 ca         1 I1E      -0.079500
      6 C6          -0.6960     0.0060     1.2130 ca         1 I1E      -0.179600
      7 C7          -2.1670     0.0060     1.2220 c          1 I1E       0.576700
      8 O7          -2.7670     0.0000     2.2760 o          1 I1E      -0.527100
      9 C8          -2.9290     0.0120    -0.0790 c3         1 I1E      -0.180400
     10 C9          -4.4310     0.0100     0.2090 c3         1 I1E      -0.082100
     11 H1          -0.5430     0.0020    -0.9370 ha         1 I1E       0.143000
     12 H2           1.9200    -0.0020    -0.9390 ha         1 I1E       0.134000
     13 H3           3.1580     0.0000     1.1910 ha         1 I1E       0.132000
     14 H4           1.9440    -0.0020     3.3350 ha         1 I1E       0.134000
     15 H5          -0.5180     0.0020     3.3620 ha         1 I1E       0.143000
     16 H8          -2.6710     0.9000    -0.6440 hc         1 I1E       0.063700
     17 H7          -2.6700    -0.8690    -0.6530 hc         1 I1E       0.063700
     18 H9          -4.6890    -0.8780     0.7740 hc         1 I1E       0.042367
     19 H9A         -4.9780     0.0150    -0.7260 hc         1 I1E       0.042367
     20 H10         -4.6900     0.8910     0.7840 hc         1 I1E       0.042367
@<TRIPOS>BOND
     1     1     2 ar
     2     3     2 ar
     3     4     3 ar
     4     5     4 ar
     5     5     6 ar
     6     6     1 ar
     7     7     6 1
     8     7     8 2
     9     9     7 1
    10    10     9 1
    11     1    11 1
    12     2    12 1
    13     3    13 1
    14     4    14 1
    15     5    15 1
    16     9    16 1
    17     9    17 1
    18    10    18 1
    19    10    19 1
    20    10    20 1
@<TRIPOS>SUBSTRUCTURE
     1 I1E         1 TEMP              0 ****  ****    0 ROOT
