@<TRIPOS>MOLECULE
molecule
   64    67     1     0     0
SMALL
bcc


@<TRIPOS>ATOM
      1 C1           0.0000     0.0000     0.0000 ca         1 I1H       0.117100
      2 C2           1.3940     0.0000     0.0000 ca         1 I1H       0.088100
      3 C3           2.0840     0.0000     1.1970 ca         1 I1H      -0.135000
      4 C4           1.3830    -0.0100     2.4040 ca         1 I1H      -0.146600
      5 C5          -0.0140    -0.0150     2.3970 ca         1 I1H      -0.103000
      6 C6          -0.6980    -0.0110     1.2010 ca         1 I1H      -0.205000
      7 O7          -0.6770     0.0050    -1.1780 os         1 I1H      -0.276900
      8 O8           2.0740     0.0100    -1.1770 os         1 I1H      -0.283900
      9 C9           3.4650     0.0190    -0.8520 c3         1 I1H       0.112400
     10 C10          4.2920     0.0310    -2.1390 c3         1 I1H      -0.040100
     11 C13          5.7590     0.0390    -1.7950 ca         1 I1H      -0.080300
     12 C16          6.4870    -1.1330    -1.8440 ca         1 I1H      -0.105000
     13 C17          7.8330    -1.1260    -1.5280 ca         1 I1H      -0.118000
     14 C18          8.4510     0.0570    -1.1620 ca         1 I1H       0.036400
     15 C19          7.7220     1.2310    -1.1120 ca         1 I1H      -0.113000
     16 C20          6.3770     1.2240    -1.4350 ca         1 I1H       0.037400
     17 Cl21         5.4620     2.6970    -1.3730 cl         1 I1H      -0.092400
     18 Cl22        10.1420     0.0660    -0.7660 cl         1 I1H      -0.097400
     19 C23          2.1160    -0.0150     3.6860 c          1 I1H       0.676700
     20 N24          1.4370    -0.0240     4.8510 ns         1 I1H      -0.586900
     21 C25          2.1640    -0.0290     6.1220 c3         1 I1H       0.118000
     22 C26          1.1660    -0.0390     7.2810 c3         1 I1H      -0.094700
     23 C29          1.9200    -0.1700     8.6080 c3         1 I1H      -0.075400
     24 C30          0.9250    -0.0640     9.7650 c3         1 I1H       0.140800
     25 N31          0.2660     1.2450     9.7360 nh         1 I1H      -0.543000
     26 C32         -0.5410     1.3010     8.5130 c3         1 I1H       0.140800
     27 C33          0.3730     1.2710     7.2860 c3         1 I1H      -0.075400
     28 C43         -0.6240     1.2690    10.8050 ca         1 I1H       0.108600
     29 C44         -1.4130     2.3920    11.0550 ca         1 I1H      -0.288800
     30 C45         -2.2830     2.3760    12.1250 ca         1 I1H       0.436700
     31 N46         -2.3730     1.3170    12.9070 nb         1 I1H      -0.707000
     32 C47         -1.6440     0.2350    12.7040 ca         1 I1H       0.436700
     33 C48         -0.7540     0.1690    11.6530 ca         1 I1H      -0.288800
     34 O52          3.3310    -0.0100     3.6910 o          1 I1H      -0.610100
     35 C7          -2.0690    -0.0020    -0.8530 c3         1 I1H       0.101700
     36 H3           3.1670     0.0020     1.1980 ha         1 I1H       0.176000
     37 H5          -0.5600    -0.0230     3.3330 ha         1 I1H       0.125000
     38 H6          -1.7810    -0.0120     1.1970 ha         1 I1H       0.149000
     39 H9C1         3.7070    -0.8660    -0.2760 h1         1 I1H       0.052200
     40 H9C2         3.6930     0.9030    -0.2680 h1         1 I1H       0.052200
     41 H101         4.0510     0.9160    -2.7150 hc         1 I1H       0.069700
     42 H102         4.0630    -0.8530    -2.7230 hc         1 I1H       0.069700
     43 H16          6.0030    -2.0590    -2.1310 ha         1 I1H       0.146000
     44 H17          8.4030    -2.0460    -1.5670 ha         1 I1H       0.149000
     45 H19          8.2070     2.1570    -0.8280 ha         1 I1H       0.159000
     46 H24          0.4370    -0.0700     4.8470 hn         1 I1H       0.313500
     47 H251         2.7900    -0.9110     6.1760 h1         1 I1H       0.057700
     48 H252         2.7830     0.8580     6.1860 h1         1 I1H       0.057700
     49 H26          0.4830    -0.8730     7.1700 hc         1 I1H       0.051700
     50 H291         2.6510     0.6250     8.6870 hc         1 I1H       0.056450
     51 H292         2.4180    -1.1320     8.6460 hc         1 I1H       0.056450
     52 H301         1.4540    -0.1790    10.7040 h1         1 I1H       0.047200
     53 H302         0.1790    -0.8440     9.6690 h1         1 I1H       0.047200
     54 H321        -1.2080     0.4480     8.4840 h1         1 I1H       0.047200
     55 H322        -1.1200     2.2170     8.5070 h1         1 I1H       0.047200
     56 H331         1.0590     2.1080     7.3280 hc         1 I1H       0.056450
     57 H332        -0.2290     1.3330     6.3870 hc         1 I1H       0.056450
     58 H44         -1.3440     3.2650    10.4170 ha         1 I1H       0.145500
     59 H45         -2.8990     3.2430    12.3270 h4         1 I1H       0.023100
     60 H47         -1.7500    -0.6140    13.3680 h4         1 I1H       0.023100
     61 H48         -0.1600    -0.7220    11.4920 ha         1 I1H       0.145500
     62 H7C1        -2.6530     0.0010    -1.7650 h1         1 I1H       0.045033
     63 H7C2        -2.3010    -0.8910    -0.2790 h1         1 I1H       0.045033
     64 H7C3        -2.3090     0.8780    -0.2680 h1         1 I1H       0.045033
@<TRIPOS>BOND
     1     1     2 ar
     2     1     6 ar
     3     1     7 1
     4     2     3 ar
     5     2     8 1
     6     3     4 ar
     7     3    36 1
     8     4     5 ar
     9     4    19 1
    10     5     6 ar
    11     5    37 1
    12     6    38 1
    13     7    35 1
    14     8     9 1
    15     9    10 1
    16     9    39 1
    17     9    40 1
    18    10    11 1
    19    10    41 1
    20    10    42 1
    21    11    12 ar
    22    11    16 ar
    23    12    13 ar
    24    12    43 1
    25    13    14 ar
    26    13    44 1
    27    14    15 ar
    28    14    18 1
    29    15    16 ar
    30    15    45 1
    31    16    17 1
    32    19    20 1
    33    19    34 2
    34    20    21 1
    35    20    46 1
    36    21    22 1
    37    21    47 1
    38    21    48 1
    39    22    23 1
    40    22    27 1
    41    22    49 1
    42    23    24 1
    43    23    50 1
    44    23    51 1
    45    24    25 1
    46    24    52 1
    47    24    53 1
    48    25    26 1
    49    25    28 1
    50    26    27 1
    51    26    54 1
    52    26    55 1
    53    27    56 1
    54    27    57 1
    55    28    29 ar
    56    28    33 ar
    57    29    30 ar
    58    29    58 1
    59    30    31 ar
    60    30    59 1
    61    31    32 ar
    62    32    33 ar
    63    32    60 1
    64    33    61 1
    65    35    62 1
    66    35    63 1
    67    35    64 1
@<TRIPOS>SUBSTRUCTURE
     1 I1H         1 TEMP              0 ****  ****    0 ROOT
