@<TRIPOS>MOLECULE
I1N
   22    22     1     0     0
SMALL
bcc


@<TRIPOS>ATOM
      1 C1          0.1830   -0.2530   -0.1430 c         1 I1N      0.522100
      2 C2          1.6880   -0.2530    0.0160 c3        1 I1N      0.016100
      3 C3          2.1360    0.0700    1.4520 c3        1 I1N      0.136600
      4 C4          1.4570   -0.8180    2.5080 c3        1 I1N      0.143100
      5 C5          0.2580   -1.6100    1.9540 c3        1 I1N      0.136600
      6 C6         -0.6060   -0.7080    1.0630 c3        1 I1N      0.016100
      7 O1         -0.3630    0.0870   -1.1960 o         1 I1N     -0.525100
      8 O2          2.3060    0.7180   -0.8120 oh        1 I1N     -0.597800
      9 O3          1.8060    1.4080    1.7880 oh        1 I1N     -0.601800
     10 O4          2.4500   -1.7240    2.9610 oh        1 I1N     -0.597800
     11 O5         -0.4680   -2.0560    3.0850 oh        1 I1N     -0.601800
     12 O6         -1.7460   -1.4650    0.6970 oh        1 I1N     -0.597800
     13 H2          2.0620   -1.2800   -0.2680 h1        1 I1N      0.086700
     14 H3          3.2540   -0.0720    1.5090 h1        1 I1N      0.073200
     15 H4          1.1060   -0.1710    3.3630 h1        1 I1N      0.086700
     16 H5          0.6130   -2.5020    1.3650 h1        1 I1N      0.073200
     17 H6         -0.9260    0.2080    1.6410 h1        1 I1N      0.086700
     18 HO2         1.8330    0.7230   -1.6580 ho        1 I1N      0.431000
     19 HO3         2.2520    1.9730    1.1410 ho        1 I1N      0.429500
     20 HO4         2.0440   -2.2380    3.6720 ho        1 I1N      0.424000
     21 HO5        -1.2850   -2.4560    2.7560 ho        1 I1N      0.429500
     22 HO6        -2.2040   -0.9730    0.0010 ho        1 I1N      0.431000
@<TRIPOS>BOND
     1    1    2 1   
     2    1    6 1   
     3    1    7 2   
     4    2    3 1   
     5    2    8 1   
     6    2   13 1   
     7    3    4 1   
     8    3    9 1   
     9    3   14 1   
    10    4    5 1   
    11    4   10 1   
    12    4   15 1   
    13    5    6 1   
    14    5   11 1   
    15    5   16 1   
    16    6   12 1   
    17    6   17 1   
    18    8   18 1   
    19    9   19 1   
    20   10   20 1   
    21   11   21 1   
    22   12   22 1   
@<TRIPOS>SUBSTRUCTURE
     1 I1N         1 TEMP              0 ****  ****    0 ROOT
