@<TRIPOS>MOLECULE
molecule
   22    22     1     0     0
SMALL
bcc


@<TRIPOS>ATOM
      1 C1           0.0000     0.0000     0.0000 c          1 I1N       0.568100
      2 C2           1.5200     0.0000     0.0000 c3         1 I1N       0.058600
      3 C3           2.0450     0.0000     1.4360 c3         1 I1N       0.141100
      4 C4           1.4470    -1.1430     2.2710 c3         1 I1N       0.130100
      5 C5          -0.0920    -1.1810     2.2240 c3         1 I1N       0.141100
      6 C6          -0.6740    -1.0940     0.8100 c3         1 I1N       0.058600
      7 O1          -0.6580     0.8030    -0.6590 o          1 I1N      -0.492100
      8 O2           2.0200     1.1300    -0.6900 oh         1 I1N      -0.577800
      9 O3           1.7350     1.2550     2.0430 oh         1 I1N      -0.573800
     10 O4           1.9800    -2.3880     1.8290 oh         1 I1N      -0.589800
     11 O5          -0.6290    -0.1220     3.0160 oh         1 I1N      -0.573800
     12 O6          -0.4600    -2.3140     0.1220 oh         1 I1N      -0.577800
     13 H2           1.8670    -0.8990    -0.4960 h1         1 I1N       0.070200
     14 H3           3.1220    -0.1200     1.4090 h1         1 I1N       0.041700
     15 H4           1.7440    -0.9920     3.3020 h1         1 I1N       0.044700
     16 H5          -0.4120    -2.1210     2.6560 h1         1 I1N       0.041700
     17 H6          -1.7370    -0.8910     0.8720 h1         1 I1N       0.070200
     18 HO2          2.4930     0.8470    -1.4550 ho         1 I1N       0.406000
     19 HO3          2.5150     1.6200     2.4260 ho         1 I1N       0.402000
     20 HO4          2.4980    -2.7710     2.5180 ho         1 I1N       0.404000
     21 HO5         -1.2000    -0.4810     3.6740 ho         1 I1N       0.402000
     22 HO6         -1.2900    -2.6900    -0.1180 ho         1 I1N       0.406000
@<TRIPOS>BOND
     1     1     2 1
     2     1     6 1
     3     1     7 2
     4     2     3 1
     5     2     8 1
     6     2    13 1
     7     3     4 1
     8     3     9 1
     9     3    14 1
    10     4     5 1
    11     4    10 1
    12     4    15 1
    13     5     6 1
    14     5    11 1
    15     5    16 1
    16     6    12 1
    17     6    17 1
    18     8    18 1
    19     9    19 1
    20    10    20 1
    21    11    21 1
    22    12    22 1
@<TRIPOS>SUBSTRUCTURE
     1 I1N         1 TEMP              0 ****  ****    0 ROOT
