@<TRIPOS>MOLECULE
molecule
   56    59     1     0     0
SMALL
bcc


@<TRIPOS>ATOM
      1 C22          0.0000     0.0000     0.0000 ca         1 I1P      -0.174000
      2 C1           8.2000     3.6500    -6.0350 cc         1 I1P      -0.279300
      3 C2           8.0240     2.3390    -6.3630 cd         1 I1P      -0.016000
      4 C7           5.9600     1.0690    -3.7910 cd         1 I1P      -0.223900
      5 C6           7.6010     4.1720    -4.8840 cc         1 I1P       0.407200
      6 C3           7.2360     1.5240    -5.5310 cd         1 I1P      -0.077300
      7 N5           6.8680     3.4180    -4.1070 nd         1 I1P      -0.480800
      8 C11          5.6530     1.9490    -1.4750 ca         1 I1P      -0.403600
      9 C10          5.1770     1.1830    -2.5480 ca         1 I1P       0.596100
     10 C9           6.1250    -0.0670    -4.5610 cc         1 I1P       0.072600
     11 C17          1.3890     0.0000     0.0000 ca         1 I1P       0.218600
     12 C14          3.3030     0.6620    -1.3070 ca         1 I1P       0.936900
     13 C13          4.8860     2.0270    -0.3300 ca         1 I1P       0.493200
     14 N15          4.0080     0.5540    -2.4210 nb         1 I1P      -0.782000
     15 C18          2.0800     0.0000     1.2050 ca         1 I1P      -0.174000
     16 C19          1.3850    -0.0010     2.3980 ca         1 I1P      -0.010000
     17 C20          0.0030    -0.0020     2.3950 ca         1 I1P      -0.340500
     18 N4           6.6600     2.0710    -4.4150 na         1 I1P       0.203200
     19 N8           6.8950     0.2410    -5.5950 nc         1 I1P      -0.292600
     20 N13          3.7300     1.3800    -0.2790 nb         1 I1P      -0.787000
     21 N16          2.0890     0.0000    -1.2090 nu         1 I1P      -0.757300
     22 C21         -0.6890    -0.0070     1.1970 ca         1 I1P      -0.010000
     23 S23         -0.8810    -0.0030     3.9190 sy         1 I1P       1.430200
     24 N24         -1.1300     1.5760     4.3490 n7         1 I1P      -0.916100
     25 C25         -1.8860     2.4650     3.4650 c3         1 I1P       0.232800
     26 C26         -1.9700     3.8580     4.0920 c3         1 I1P      -0.091400
     27 C27         -2.7610     4.7870     3.1690 c3         1 I1P       0.134800
     28 N28         -2.8410     6.1250     3.7710 n3         1 I1P      -0.671600
     29 C29         -3.6080     6.9620     2.8400 c3         1 I1P       0.122100
     30 C30         -3.6550     5.9920     4.9870 c3         1 I1P       0.122100
     31 O31          0.0180    -0.5290     4.8850 o          1 I1P      -0.640300
     32 O32         -2.1670    -0.5290     3.6210 o          1 I1P      -0.640300
     33 H22         -0.5420    -0.0020    -0.9380 ha         1 I1P       0.150000
     34 H2           8.4860     1.9300    -7.2530 ha         1 I1P       0.168000
     35 H6           7.7470     5.2160    -4.6320 h4         1 I1P       0.053100
     36 H11          6.6020     2.4690    -1.5420 ha         1 I1P       0.159000
     37 H9           5.7010    -1.0420    -4.3530 h4         1 I1P       0.202000
     38 H13          5.2240     2.6110     0.5180 h4         1 I1P       0.034100
     39 H18          3.1630     0.0000     1.2080 ha         1 I1P       0.150000
     40 H19          1.9230     0.0010     3.3380 ha         1 I1P       0.152000
     41 H16          1.7260    -0.4980    -1.9970 hn         1 I1P       0.471800
     42 H21         -1.7720    -0.0070     1.1970 ha         1 I1P       0.152000
     43 H24         -0.7860     1.9160     5.2250 hn         1 I1P       0.455800
     44 H251        -2.8860     2.0710     3.3260 h1         1 I1P       0.045700
     45 H252        -1.3870     2.5300     2.5060 h1         1 I1P       0.045700
     46 H261        -0.9710     4.2530     4.2310 hc         1 I1P       0.056700
     47 H262        -2.4690     3.7930     5.0510 hc         1 I1P       0.056700
     48 H271        -3.7600     4.3930     3.0300 h1         1 I1P       0.038700
     49 H272        -2.2620     4.8520     2.2090 h1         1 I1P       0.038700
     50 H291        -4.5920     6.5330     2.6950 h1         1 I1P       0.035867
     51 H292        -3.7060     7.9600     3.2490 h1         1 I1P       0.035867
     52 H293        -3.0920     7.0110     1.8890 h1         1 I1P       0.035867
     53 H301        -4.0540     6.9610     5.2610 h1         1 I1P       0.035867
     54 H302        -4.4710     5.3040     4.8020 h1         1 I1P       0.035867
     55 H303        -3.0390     5.6140     5.7940 h1         1 I1P       0.035867
     56 H1           8.8040     4.2880    -6.6670 ha         1 I1P       0.153000
@<TRIPOS>BOND
     1     1    11 ar
     2     1    22 ar
     3     1    33 1
     4     2     3 2
     5     2     5 1
     6     2    56 1
     7     3     6 1
     8     3    34 1
     9     4     9 1
    10     4    10 2
    11     4    18 1
    12     5     7 2
    13     5    35 1
    14     6    18 1
    15     6    19 2
    16     7    18 1
    17     8     9 ar
    18     8    13 ar
    19     8    36 1
    20     9    14 ar
    21    10    19 1
    22    10    37 1
    23    11    15 ar
    24    11    21 1
    25    12    14 ar
    26    12    20 ar
    27    12    21 1
    28    13    20 ar
    29    13    38 1
    30    15    16 ar
    31    15    39 1
    32    16    17 ar
    33    16    40 1
    34    17    22 ar
    35    17    23 1
    36    21    41 1
    37    22    42 1
    38    23    24 1
    39    23    31 2
    40    23    32 2
    41    24    25 1
    42    24    43 1
    43    25    26 1
    44    25    44 1
    45    25    45 1
    46    26    27 1
    47    26    46 1
    48    26    47 1
    49    27    28 1
    50    27    48 1
    51    27    49 1
    52    28    29 1
    53    28    30 1
    54    29    50 1
    55    29    51 1
    56    29    52 1
    57    30    53 1
    58    30    54 1
    59    30    55 1
@<TRIPOS>SUBSTRUCTURE
     1 I1P         1 TEMP              0 ****  ****    0 ROOT
