@<TRIPOS>MOLECULE
molecule
   39    40     1     0     0
SMALL
bcc


@<TRIPOS>ATOM
      1 C4           0.0000     0.0000     0.0000 ca         1 I1S      -0.146000
      2 C5           1.3830     0.0000     0.0000 ca         1 I1S      -0.154000
      3 C6          -0.6920     0.0020     1.1970 ca         1 I1S      -0.080500
      4 C7           0.0000     0.0030     2.3940 ca         1 I1S      -0.040300
      5 O8          -1.6100    -2.2540     7.7270 os         1 I1S      -0.455900
      6 N10         -1.4830    -1.4110     5.5550 ns         1 I1S      -0.490900
      7 C11         -0.8680    -1.4270     4.2250 c3         1 I1S      -0.021500
      8 O12          0.0370    -2.8220     6.3510 o          1 I1S      -0.640000
      9 P13         -1.9010    -2.4100     3.0900 p5         1 I1S       1.014700
     10 C17         -1.0140    -3.1100     8.7390 c3         1 I1S       0.213700
     11 C18         -1.8490    -3.0610     9.9920 ca         1 I1S      -0.068300
     12 C19         -2.8820    -3.9620    10.1710 ca         1 I1S      -0.105000
     13 O1P         -1.0470    -2.7910     1.7800 o          1 I1S      -0.894500
     14 C20         -3.6470    -3.9170    11.3200 ca         1 I1S      -0.144000
     15 C21         -3.3800    -2.9720    12.2930 ca         1 I1S      -0.143000
     16 C22          2.0740     0.0000     1.1970 ca         1 I1S      -0.146000
     17 C23          1.3820     0.0010     2.3950 ca         1 I1S      -0.080500
     18 C24         -0.7540     0.0060     3.6990 c3         1 I1S      -0.029100
     19 O2P         -2.3390    -3.6490     3.7710 o          1 I1S      -0.894500
     20 C30         -2.3460    -2.0710    12.1150 ca         1 I1S      -0.144000
     21 C31         -1.5770    -2.1190    10.9670 ca         1 I1S      -0.105000
     22 O3P         -3.1920    -1.5500     2.6590 o          1 I1S      -0.894500
     23 H4          -0.5410    -0.0000    -0.9380 ha         1 I1S       0.093500
     24 H5           1.9240    -0.0010    -0.9380 ha         1 I1S       0.083000
     25 H6          -1.7750     0.0030     1.1970 ha         1 I1S       0.143500
     26 HN10        -2.2880    -0.8430     5.7280 hn         1 I1S       0.307500
     27 H11          0.1190    -1.8680     4.2880 h1         1 I1S       0.081700
     28 H17         -0.9730    -4.1280     8.3720 h1         1 I1S       0.048700
     29 H17A        -0.0110    -2.7640     8.9590 h1         1 I1S       0.048700
     30 H19         -3.0920    -4.7020     9.4090 ha         1 I1S       0.140500
     31 H20         -4.4570    -4.6230    11.4590 ha         1 I1S       0.115000
     32 H21         -3.9810    -2.9360    13.1930 ha         1 I1S       0.109000
     33 H22          3.1570    -0.0010     1.1970 ha         1 I1S       0.093500
     34 H23          1.9240     0.0020     3.3330 ha         1 I1S       0.143500
     35 H24         -0.2240     0.6150     4.4220 hc         1 I1S       0.025700
     36 H24A        -1.7460     0.4130     3.5420 hc         1 I1S       0.025700
     37 H30         -2.1350    -1.3320    12.8790 ha         1 I1S       0.115000
     38 H31         -0.7670    -1.4130    10.8280 ha         1 I1S       0.140500
     39 C9          -0.9820    -2.1860     6.5380 c          1 I1S       0.735100
@<TRIPOS>BOND
     1     1     2 ar
     2     1     3 ar
     3     2    16 ar
     4     3     4 ar
     5     4    17 ar
     6     4    18 1
     7     5    39 1
     8     5    10 1
     9    39     6 1
    10    39     8 2
    11     6     7 1
    12     7     9 1
    13     7    18 1
    14     9    13 1
    15     9    19 1
    16     9    22 1
    17    10    11 1
    18    11    12 ar
    19    11    21 ar
    20    12    14 ar
    21    14    15 ar
    22    15    20 ar
    23    16    17 ar
    24    20    21 ar
    25     1    23 1
    26     2    24 1
    27     3    25 1
    28     6    26 1
    29     7    27 1
    30    10    28 1
    31    10    29 1
    32    12    30 1
    33    14    31 1
    34    15    32 1
    35    16    33 1
    36    17    34 1
    37    18    35 1
    38    18    36 1
    39    20    37 1
    40    21    38 1
@<TRIPOS>SUBSTRUCTURE
     1 I1S         1 TEMP              0 ****  ****    0 ROOT
