@<TRIPOS>MOLECULE
molecule
   73    74     1     0     0
SMALL
bcc


@<TRIPOS>ATOM
      1 C1           0.0000     0.0000     0.0000 c3         1 I20      -0.114100
      2 C2           1.5300     0.0000     0.0000 c3         1 I20      -0.076500
      3 O5           3.6190     1.4870    -0.8600 o          1 I20      -0.794000
      4 C7           1.5310     1.4860    -2.5790 c3         1 I20      -0.238600
      5 C8           2.1420     2.6670    -3.3360 c3         1 I20      -0.012700
      6 C9           3.6060     2.3630    -3.6600 c3         1 I20      -0.210100
      7 C10          1.3800     2.8910    -4.6170 c          1 I20       0.656100
      8 C11          4.2390     3.5690    -4.3060 ca         1 I20      -0.043300
      9 C12          4.7500     4.5850    -3.5200 ca         1 I20      -0.115000
     10 C13          5.3300     5.6910    -4.1120 ca         1 I20      -0.133000
     11 C14          5.3990     5.7810    -5.4890 ca         1 I20      -0.131000
     12 C15          4.8880     4.7650    -6.2750 ca         1 I20      -0.133000
     13 C16          4.3130     3.6560    -5.6830 ca         1 I20      -0.115000
     14 C27          4.6540    -1.8460     3.3040 c3         1 I20      -0.090400
     15 N29          5.7740    -0.5440     5.0510 nz         1 I20      -0.795600
     16 C30          3.0200    -0.8260     1.7420 c          1 I20       0.588100
     17 C32          3.5230    -0.8260     3.1630 c3         1 I20      -0.178400
     18 C35          0.6100     4.3420    -6.4170 c3         1 I20       0.006700
     19 NZ           8.1950    -5.6480     3.1580 n1         1 I20      -0.299800
     20 CD           6.6900    -5.3670     5.2690 c3         1 I20       0.191800
     21 CG           5.7960    -6.6110     5.4600 c3         1 I20      -0.066400
     22 CB           4.4530    -6.0030     5.9450 c3         1 I20      -0.331400
     23 CA           4.4010    -4.6810     5.1380 c3         1 I20       0.199000
     24 N            5.7970    -4.2120     5.0930 n          1 I20      -0.469800
     25 C            6.1910    -2.9350     4.9170 c          1 I20       0.668100
     26 O            7.3730    -2.6620     4.8960 o          1 I20      -0.578100
     27 C28          5.1630    -1.8450     4.7470 c3         1 I20       0.023500
     28 O31          3.5180    -1.5690     0.9240 o          1 I20      -0.593100
     29 N3           2.0180     0.0000     1.3810 ns         1 I20      -0.406900
     30 P4           2.1390     1.4880    -0.8600 p5         1 I20       0.959400
     31 O6           1.6020     2.8020    -0.1020 o          1 I20      -0.794000
     32 N34          1.2550     4.1370    -5.1180 ns         1 I20      -0.552900
     33 C37          1.1720     5.5800    -7.0660 c          1 I20       0.888600
     34 O39          1.0590     5.7530    -8.3930 o          1 I20      -0.852800
     35 O38          1.7240     6.4180    -6.3930 o          1 I20      -0.852800
     36 C36         -0.8970     4.5110    -6.2170 c3         1 I20      -0.084100
     37 O33          0.8790     1.9510    -5.1970 o          1 I20      -0.654100
     38 H11          0.2440    -0.9800     0.3920 hc         1 I20       0.053700
     39 H12A        -0.4460     0.6710     0.7240 hc         1 I20       0.053700
     40 H13A        -0.4460    -0.0130    -0.9870 hc         1 I20       0.053700
     41 H2           1.8910    -0.8850    -0.5100 h1         1 I20       0.069700
     42 H71          1.8730     0.4590    -2.6110 hc         1 I20       0.045200
     43 H72          0.4490     1.5320    -2.5950 hc         1 I20       0.045200
     44 H8           2.0850     3.5580    -2.7220 hc         1 I20       0.050700
     45 H91          3.3590     3.1190    -2.9250 hc         1 I20       0.119200
     46 H92          4.1980     1.6610    -3.0840 hc         1 I20       0.119200
     47 H12          4.7030     4.5100    -2.4400 ha         1 I20       0.130500
     48 H13          5.7200     6.4930    -3.4960 ha         1 I20       0.117000
     49 H14          5.8340     6.6580    -5.9540 ha         1 I20       0.111000
     50 H15          4.9390     4.8370    -7.3540 ha         1 I20       0.117000
     51 H16          4.4230     2.8600    -6.4090 ha         1 I20       0.130500
     52 H271         4.2840    -2.8320     3.0520 hc         1 I20       0.108700
     53 H272         5.4640    -1.5810     2.6360 hc         1 I20       0.108700
     54 H291         6.3470    -0.2570     4.2820 hn         1 I20       0.465467
     55 H292         6.3360    -0.6240     5.8750 hn         1 I20       0.465467
     56 H321         2.7130    -1.0890     3.8330 hc         1 I20       0.053200
     57 H322         3.8930     0.1610     3.4140 hc         1 I20       0.053200
     58 H35          0.7970     3.4840    -7.0520 h1         1 I20       0.070700
     59 HB1          4.2170    -5.6900     4.9360 hc         1 I20       0.130200
     60 HB2          3.6120    -6.6710     6.0880 hc         1 I20       0.130200
     61 HA1          4.0340    -4.8680     4.1360 h1         1 I20       0.044200
     62 HA2          3.7770    -3.9560     5.6460 h1         1 I20       0.044200
     63 H28          4.3350    -2.0220     5.4230 hx         1 I20       0.111700
     64 HN3          1.6110    -0.3230     2.2370 hn         1 I20       0.247500
     65 HN34         1.6190     4.9190    -4.6100 hn         1 I20       0.328500
     66 H361        -1.1250     4.5040    -5.1580 hc         1 I20       0.022367
     67 H362        -1.2150     5.4530    -6.6480 hc         1 I20       0.022367
     68 H363        -1.4200     3.6960    -6.7040 hc         1 I20       0.022367
     69 HD           7.3080    -5.2210     6.1470 h1         1 I20       0.103700
     70 CE           7.5340    -5.5350     4.0760 c1         1 I20       0.171700
     71 HG1          6.2130    -7.2670     6.2150 hc         1 I20       0.074200
     72 H293         5.0550     0.1360     5.1960 hn         1 I20       0.465467
     73 HG2          5.6620    -7.1320     4.5200 hc         1 I20       0.074200
@<TRIPOS>BOND
     1    22    21 1
     2    22    23 1
     3    21    20 1
     4    23    24 1
     5    20    70 1
     6    20    24 1
     7    70    19 3
     8    24    25 1
     9    25    27 1
    10    25    26 2
    11    15    27 1
    12    27    14 1
    13    14    17 1
    14    17    16 1
    15    28    16 2
    16    16    29 1
    17    29     2 1
    18     3    30 1
    19     2    30 1
    20     2     1 1
    21    30    31 1
    22    30     4 1
    23     4     5 1
    24     5     6 1
    25     5     7 1
    26     6     8 1
    27     7    37 2
    28     7    32 1
    29    13     8 ar
    30    13    12 ar
    31    32    18 1
    32    35    33 1
    33     8     9 ar
    34    12    11 ar
    35    33    18 1
    36    33    34 1
    37    18    36 1
    38     9    10 ar
    39    11    10 ar
    40     1    38 1
    41     1    39 1
    42     1    40 1
    43     2    41 1
    44     4    42 1
    45     4    43 1
    46     5    44 1
    47     6    45 1
    48     6    46 1
    49     9    47 1
    50    10    48 1
    51    11    49 1
    52    12    50 1
    53    13    51 1
    54    14    52 1
    55    14    53 1
    56    15    54 1
    57    15    55 1
    58    17    56 1
    59    17    57 1
    60    18    58 1
    61    20    69 1
    62    21    71 1
    63    21    73 1
    64    22    59 1
    65    22    60 1
    66    23    61 1
    67    23    62 1
    68    27    63 1
    69    29    64 1
    70    32    65 1
    71    36    66 1
    72    36    67 1
    73    36    68 1
    74    72    15 1
@<TRIPOS>SUBSTRUCTURE
     1 I20         1 TEMP              0 ****  ****    0 ROOT
