@<TRIPOS>MOLECULE
I21
   68    69     1     0     0
SMALL
bcc


@<TRIPOS>ATOM
      1 C3          0.2950   -1.1010    0.4280 c2        1 I21     -0.314000
      2 C4          1.6600   -1.5780    0.6180 c2        1 I21     -0.104000
      3 C5          2.6940   -1.2480   -0.1710 c2        1 I21     -0.101000
      4 C6         -1.4580    4.0800    7.8170 c1        1 I21      0.296000
      5 C7         -1.0750    3.7570    6.5990 c2        1 I21     -0.563000
      6 C8         -0.4350   -0.6920    1.4530 c1        1 I21      0.161000
      7 C9         -0.2990   -1.0460   -0.9510 c2        1 I21      0.344000
      8 C10        -1.8340    3.9090    5.3390 c3        1 I21      0.084000
      9 O3         -1.9810    2.6250    4.6850 os        1 I21     -0.300000
     10 N2         -1.7040   -0.8480   -0.9220 n2        1 I21     -0.307000
     11 C11        -2.5100   -1.1390   -1.8890 c2        1 I21      0.121000
     12 C12        -3.0110    0.4530    4.3860 c3        1 I21     -0.012000
     13 C13        -3.9970   -0.8670   -1.7690 c3        1 I21     -0.101000
     14 C27        -4.5380   -0.2920   -0.6200 c1        1 I21     -0.027000
     15 N3         -2.3420    0.4900    3.0390 n4        1 I21     -0.050000
     16 C14        -4.4410   -0.1200    4.2750 c3        1 I21     -0.167000
     17 C15        -4.5870    0.2750    0.6150 c2        1 I21     -0.033000
     18 C16        -4.7200   -0.4000    1.8070 c2        1 I21     -0.389000
     19 C17        -5.2270    0.2700    3.0300 c3        1 I21     -0.075000
     20 C18        -5.3910    1.7420    2.9010 c2        1 I21     -0.072000
     21 C19        -5.1000    2.3910    1.7480 c2        1 I21     -0.242000
     22 C20        -4.5220    1.7400    0.6230 c1        1 I21     -0.001000
     23 C21        -4.9280   -1.5320   -5.5000 c1        1 I21     -0.101000
     24 C22        -3.2500   -2.6550   -3.6830 c1        1 I21     -0.066000
     25 C23        -2.1510   -1.7910   -3.2200 c3        1 I21     -0.185000
     26 C24        -1.7910   -0.7170   -4.1990 c2        1 I21     -0.150000
     27 C25        -2.6200   -0.3570   -5.1920 c2        1 I21     -0.036000
     28 C26        -3.8680   -0.9830   -5.3630 c1        1 I21     -0.202000
     29 C29        -3.0580    1.8600    5.0050 c2        1 I21      0.284000
     30 C30        -2.2040   -0.4180    5.3600 c3        1 I21     -0.245000
     31 O1          0.4050   -1.0960   -1.9680 o         1 I21     -0.293000
     32 O2         -3.9440    2.2910    5.7350 o         1 I21     -0.286000
     33 C31         4.8850   -2.0600   -1.0460 c3        1 I21     -0.154000
     34 C32         6.2870   -2.4090   -0.7290 c2        1 I21     -0.073000
     35 C33         6.7500   -2.4400    0.5420 c2        1 I21     -0.206000
     36 C34         5.8980   -2.2030    1.6610 c1        1 I21     -0.007000
     37 C35         4.6000   -1.6470    1.3830 c2        1 I21     -0.068000
     38 C36         4.0610   -1.6470    0.1220 c2        1 I21      0.012000
     39 N1          3.2970   -0.7290    3.4220 n1        1 I21     -0.070000
     40 H4          1.7990   -2.2320    1.4980 ha        1 I21      0.155000
     41 H6          2.5510   -0.6500   -1.0910 ha        1 I21      0.167000
     42 H8         -0.0450    3.3540    6.4800 ha        1 I21      0.207000
     43 H101       -1.2460    4.4950    4.5790 h1        1 I21      0.127500
     44 H102       -2.8450    4.3680    5.5010 h1        1 I21      0.127500
     45 H13        -4.5380   -1.8610   -1.9680 hc        1 I21      0.222000
     46 H27        -4.2970   -0.2200   -2.6590 hc        1 I21      0.222000
     47 HN31       -2.8220    1.1660    2.4320 hn        1 I21      0.267667
     48 HN32       -2.3990   -0.4410    2.5960 hn        1 I21      0.267667
     49 H141       -4.3730   -1.2410    4.3110 hc        1 I21      0.137000
     50 H142       -5.0020    0.2220    5.1890 hc        1 I21      0.137000
     51 H16        -4.6150   -1.4900    1.8630 ha        1 I21      0.140000
     52 H18        -6.2870   -0.1280    3.1900 hc        1 I21      0.170000
     53 H19        -5.7540    2.2700    3.8010 ha        1 I21      0.162000
     54 H20        -5.2660    3.4790    1.6470 ha        1 I21      0.178000
     55 H21        -3.0230   -3.2880   -4.5530 ha        1 I21      0.077000
     56 H22        -5.8660   -2.0180   -5.6290 ha        1 I21      0.244000
     57 H24        -1.2270   -2.4400   -3.0680 hc        1 I21      0.155000
     58 H25        -0.8040   -0.2500   -4.0490 ha        1 I21      0.166000
     59 H26        -2.3540    0.4350   -5.9160 ha        1 I21      0.170000
     60 H301       -1.1830    0.0060    5.5240 hc        1 I21      0.125000
     61 H302       -2.7410   -0.4430    6.3410 hc        1 I21      0.125000
     62 H303       -2.1130   -1.4640    4.9780 hc        1 I21      0.125000
     63 H31         4.8840   -1.2180   -1.8000 hc        1 I21      0.148000
     64 H32         4.3910   -2.9420   -1.5500 hc        1 I21      0.148000
     65 H33         6.9210   -2.6700   -1.5930 ha        1 I21      0.148000
     66 H34         7.8000   -2.7010    0.7650 ha        1 I21      0.169000
     67 H331       -1.3520    0.7520    3.1340 hn        1 I21      0.267667
     68 C37         3.8720   -1.1470    2.5010 c1        1 I21     -0.060000
@<TRIPOS>BOND
     1    1    2 1
     2    1    6 1
     3    1    7 1
     4    2    3 1
     5    2   40 1
     6    3   38 1
     7    3   41 1
     8    4    5 1
     9    5    8 1
    10    5   42 1
    11    7   10 1
    12    7   31 1
    13    8    9 1
    14    8   43 1
    15    8   44 1
    16    9   29 1
    17   10   11 1
    18   11   13 1
    19   11   25 1
    20   12   15 1
    21   12   16 1
    22   12   29 1
    23   12   30 1
    24   13   14 1
    25   13   45 1
    26   13   46 1
    27   14   17 1
    28   15   47 1
    29   15   48 1
    30   15   67 1
    31   16   19 1
    32   16   49 1
    33   16   50 1
    34   17   18 1
    35   17   22 1
    36   18   19 1
    37   18   51 1
    38   19   20 1
    39   19   52 1
    40   20   21 1
    41   20   53 1
    42   21   22 1
    43   21   54 1
    44   23   28 1
    45   23   56 1
    46   24   25 1
    47   24   55 1
    48   25   26 1
    49   25   57 1
    50   26   27 1
    51   26   58 1
    52   27   28 1
    53   27   59 1
    54   29   32 1
    55   30   60 1
    56   30   61 1
    57   30   62 1
    58   33   34 1
    59   33   38 1
    60   33   63 1
    61   33   64 1
    62   34   35 1
    63   34   65 1
    64   35   36 1
    65   35   66 1
    66   36   37 1
    67   37   38 1
    68   37   68 1
    69   39   68 1
@<TRIPOS>SUBSTRUCTURE
     1 I21         1 TEMP              0 ****  ****    0 ROOT
