@<TRIPOS>MOLECULE
I22
   31    30     1     0     0
SMALL
bcc


@<TRIPOS>ATOM
      1 O8          0.5970    1.3950   -1.6140 o         1 I22     -0.916500
      2 P1          1.1540    0.5180   -0.5120 p5        1 I22      1.317900
      3 O9          0.6410    0.8370    0.8640 o         1 I22     -0.916500
      4 O10         1.4170   -0.9170   -0.8440 o         1 I22     -0.916500
      5 O7          2.7460    1.2410   -0.4680 os        1 I22     -0.552200
      6 C7          2.7520    2.5070    0.0410 c3        1 I22      0.199400
      7 C6          3.1020    3.5590   -1.0450 c3        1 I22      0.101100
      8 O6          2.5210    3.2840   -2.2930 oh        1 I22     -0.696800
      9 C5          2.6310    4.9650   -0.6030 c3        1 I22      0.086100
     10 O5          3.0830    5.2910    0.7110 oh        1 I22     -0.651800
     11 C4          3.2090    6.0640   -1.5120 c3        1 I22      0.180100
     12 O4          2.8430    5.9450   -2.8680 oh        1 I22     -0.637800
     13 C3          2.7850    7.4590   -1.0000 c3        1 I22      0.034100
     14 O3          1.3720    7.5410   -1.0580 oh        1 I22     -0.561800
     15 C2          3.4100    8.5950   -1.7800 c         1 I22      0.526100
     16 O2          2.8370    9.6900   -1.8990 o         1 I22     -0.588100
     17 C1          4.7540    8.3650   -2.4190 c3        1 I22      0.023400
     18 O1          5.3370    9.5540   -2.9180 oh        1 I22     -0.613800
     19 H71         3.5490    2.5990    0.8410 h1        1 I22     -0.006300
     20 H72         1.7500    2.7660    0.4950 h1        1 I22     -0.006300
     21 H6          4.2160    3.5890   -1.2020 h1        1 I22      0.010700
     22 HO6         1.8660    2.5310   -2.1730 ho        1 I22      0.516000
     23 H5          1.5060    5.0120   -0.6350 h1        1 I22      0.074700
     24 HO5         2.8280    4.5510    1.2760 ho        1 I22      0.429000
     25 H4          4.3350    6.0170   -1.4700 h1        1 I22      0.037700
     26 HO4         2.2630    5.1700   -2.9660 ho        1 I22      0.469000
     27 H3          3.1260    7.5510    0.0740 h1        1 I22      0.075700
     28 HO3         1.1370    8.4540   -0.8470 ho        1 I22      0.395000
     29 H11         5.4870    7.9640   -1.6690 h1        1 I22      0.089200
     30 H12         4.6220    7.6200   -3.2550 h1        1 I22      0.089200
     31 HO1         4.6190   10.1100   -3.2510 ho        1 I22      0.411000
@<TRIPOS>BOND
     1    1    2 1   
     2    2    3 1   
     3    2    4 1   
     4    2    5 1   
     5    5    6 1   
     6    6    7 1   
     7    6   19 1   
     8    6   20 1   
     9    7    8 1   
    10    7    9 1   
    11    7   21 1   
    12    8   22 1   
    13    9   10 1   
    14    9   11 1   
    15    9   23 1   
    16   10   24 1   
    17   11   12 1   
    18   11   13 1   
    19   11   25 1   
    20   12   26 1   
    21   13   14 1   
    22   13   15 1   
    23   13   27 1   
    24   14   28 1   
    25   15   16 2   
    26   15   17 1   
    27   17   18 1   
    28   17   29 1   
    29   17   30 1   
    30   18   31 1   
@<TRIPOS>SUBSTRUCTURE
     1 I22         1 TEMP              0 ****  ****    0 ROOT
