@<TRIPOS>MOLECULE
molecule
   31    30     1     0     0
SMALL
bcc


@<TRIPOS>ATOM
      1 O8           0.0000     0.0000     0.0000 o          1 I22      -0.909500
      2 P1           1.6090     0.0000     0.0000 p5         1 I22       1.179900
      3 O9           2.1030     0.0000     1.3950 o          1 I22      -0.909500
      4 O10          2.1470    -1.3150    -0.7590 o          1 I22      -0.909500
      5 O7           2.1470     1.3140    -0.7590 os         1 I22      -0.580200
      6 C7           1.9280     2.6390    -0.2700 c3         1 I22       0.203400
      7 C6           2.5660     3.6480    -1.2260 c3         1 I22       0.127100
      8 O6           1.8980     3.5960    -2.4890 oh         1 I22      -0.605800
      9 C5           2.4420     5.0560    -0.6410 c3         1 I22       0.135100
     10 O5           3.1100     5.1080     0.6220 oh         1 I22      -0.614800
     11 C4           3.0800     6.0640    -1.5980 c3         1 I22       0.151100
     12 O4           2.4120     6.0130    -2.8600 oh         1 I22      -0.552800
     13 C3           2.9560     7.4720    -1.0120 c3         1 I22       0.042100
     14 O3           1.5840     7.7490    -0.7240 oh         1 I22      -0.553800
     15 C2           3.4740     8.4780    -2.0070 c          1 I22       0.527100
     16 O2           2.6990     9.1650    -2.6300 o          1 I22      -0.470100
     17 C1           4.9580     8.6280    -2.2260 c3         1 I22       0.033400
     18 O1           5.1950     9.6360    -3.2100 oh         1 I22      -0.587800
     19 H71          0.8630     2.8280    -0.2030 h1         1 I22       0.022200
     20 H72          2.3740     2.7390     0.7120 h1         1 I22       0.022200
     21 H6           3.6130     3.4040    -1.3620 h1         1 I22       0.027700
     22 HO6          2.3270     2.9690    -3.0460 ho         1 I22       0.408000
     23 H5           1.3950     5.3000    -0.5050 h1         1 I22       0.074700
     24 HO5          2.4850     5.3000     1.3010 ho         1 I22       0.404000
     25 H4           4.1270     5.8200    -1.7330 h1         1 I22       0.034700
     26 HO4          3.0410     5.8440    -3.5420 ho         1 I22       0.390000
     27 H3           3.5360     7.5360    -0.0990 h1         1 I22       0.051700
     28 HO3          1.5270     8.2890     0.0470 ho         1 I22       0.387000
     29 H11          5.3690     7.6860    -2.5670 h1         1 I22       0.040200
     30 H12          5.4330     8.9130    -1.2950 h1         1 I22       0.040200
     31 HO1          6.1150     9.8370    -3.2390 ho         1 I22       0.392000
@<TRIPOS>BOND
     1     1     2 1
     2     2     3 1
     3     2     4 1
     4     2     5 1
     5     5     6 1
     6     6     7 1
     7     6    19 1
     8     6    20 1
     9     7     8 1
    10     7     9 1
    11     7    21 1
    12     8    22 1
    13     9    10 1
    14     9    11 1
    15     9    23 1
    16    10    24 1
    17    11    12 1
    18    11    13 1
    19    11    25 1
    20    12    26 1
    21    13    15 1
    22    13    14 1
    23    13    27 1
    24    14    28 1
    25    15    17 1
    26    15    16 2
    27    17    18 1
    28    17    29 1
    29    17    30 1
    30    18    31 1
@<TRIPOS>SUBSTRUCTURE
     1 I22         1 TEMP              0 ****  ****    0 ROOT
