@<TRIPOS>MOLECULE
I23
   62    64     1     0     0
SMALL
bcc


@<TRIPOS>ATOM
      1 O28          0.0000     0.0000     0.0000 o          1 I23      -0.644100
      2 C9           1.2130     0.0000     0.0000 c          1 I23       0.578100
      3 N8           1.8870     0.0070    -1.1670 ns         1 I23      -0.200900
      4 C7           1.1550     0.0140    -2.4360 c3         1 I23       0.016700
      5 C6           0.7320    -1.4300    -2.7770 c3         1 I23      -0.043400
      6 C5          -0.4110    -1.3760    -3.7510 c3         1 I23      -0.020900
      7 C4           0.0570    -1.4720    -5.2170 c3         1 I23      -0.026400
      8 C3           1.3220    -0.6370    -5.4950 c3         1 I23      -0.026400
      9 C2           1.2820     0.7100    -4.8250 c3         1 I23      -0.020900
     10 C1           2.0000     0.6020    -3.4640 c3         1 I23      -0.043400
     11 C10          1.9660     0.0000     1.3060 c3         1 I23      -0.121700
     12 C27          0.9710    -0.0080     2.4680 c3         1 I23      -0.030400
     13 C26          1.7390    -0.0440     3.7930 c3         1 I23       0.226800
     14 N13          2.6880     1.0780     3.8190 n3         1 I23      -0.529500
     15 C12          3.6310     1.2320     2.7030 c3         1 I23       0.226800
     16 C11          2.8400     1.2530     1.3900 c3         1 I23      -0.030400
     17 S14          2.6950     2.1470     5.0830 sy         1 I23       1.059200
     18 O15          3.2700     3.3490     4.5890 o          1 I23      -0.592300
     19 O25          1.4000     2.0880     5.6660 o          1 I23      -0.592300
     20 C16          3.8140     1.5200     6.2910 ca         1 I23      -0.177500
     21 C23          5.1480     1.8780     6.2490 ca         1 I23       0.039700
     22 C24          5.6460     2.8050     5.1700 c3         1 I23      -0.004800
     23 C22          6.0260     1.3870     7.1970 ca         1 I23      -0.151500
     24 C20          5.5700     0.5360     8.1860 ca         1 I23      -0.023300
     25 C21          6.5270    -0.0000     9.2200 c3         1 I23       0.056200
     26 C19          4.2350     0.1780     8.2290 ca         1 I23      -0.151500
     27 C17          3.3560     0.6750     7.2850 ca         1 I23       0.039700
     28 C18          1.9010     0.2850     7.3310 c3         1 I23      -0.004800
     29 H1           2.8880     0.0230    -1.1660 hn         1 I23       0.173500
     30 H2           0.2640     0.6210    -2.3280 h1         1 I23       0.061700
     31 H3           1.5670    -1.9570    -3.2240 hc         1 I23       0.022200
     32 H4           0.4160    -1.9390    -1.8740 hc         1 I23       0.022200
     33 H5          -0.9410    -0.4410    -3.6160 hc         1 I23       0.020450
     34 H6          -1.0850    -2.1990    -3.5460 hc         1 I23       0.020450
     35 H7           0.2680    -2.5100    -5.4470 hc         1 I23       0.011950
     36 H8          -0.7400    -1.1210    -5.8600 hc         1 I23       0.011950
     37 H9           2.1860    -1.1810    -5.1330 hc         1 I23       0.011950
     38 H10          1.4150    -0.4910    -6.5640 hc         1 I23       0.011950
     39 H11          1.7880     1.4390    -5.4460 hc         1 I23       0.020450
     40 H12          0.2520     1.0080    -4.6690 hc         1 I23       0.020450
     41 H13          2.8840    -0.0130    -3.5840 hc         1 I23       0.022200
     42 H14          2.2970     1.5940    -3.1470 hc         1 I23       0.022200
     43 H15          2.5940    -0.8800     1.3650 hc         1 I23       0.036700
     44 H16          0.3380    -0.8850     2.3950 hc         1 I23       0.031450
     45 H17          0.3620     0.8870     2.4290 hc         1 I23       0.031450
     46 H18          1.0430     0.0510     4.6180 h1         1 I23       0.025450
     47 H19          2.2810    -0.9790     3.8730 h1         1 I23       0.025450
     48 H20          4.3230     0.3980     2.6950 h1         1 I23       0.025450
     49 H21          4.1740     2.1620     2.8130 h1         1 I23       0.025450
     50 H22          3.5290     1.2690     0.5540 hc         1 I23       0.031450
     51 H23          2.2100     2.1340     1.3630 hc         1 I23       0.031450
     52 H24          5.0620     3.7170     5.1800 hc         1 I23       0.035700
     53 H25          5.5460     2.3230     4.2050 hc         1 I23       0.035700
     54 H26          6.6880     3.0420     5.3500 hc         1 I23       0.035700
     55 H27          7.0720     1.6670     7.1630 ha         1 I23       0.115500
     56 H28          7.1590    -0.7560     8.7690 hc         1 I23       0.011033
     57 H29          5.9670    -0.4380    10.0370 hc         1 I23       0.011033
     58 H30          7.1420     0.8080     9.5960 hc         1 I23       0.011033
     59 H31          3.8770    -0.4860     9.0060 ha         1 I23       0.115500
     60 H32          1.6590    -0.3100     6.4580 hc         1 I23       0.035700
     61 H33          1.2880     1.1780     7.3410 hc         1 I23       0.035700
     62 H34          1.7110    -0.2940     8.2260 hc         1 I23       0.035700
@<TRIPOS>BOND
     1     1     2 2   
     2     2     3 1   
     3     2    11 1   
     4     3     4 1   
     5     3    29 1   
     6     4     5 1   
     7     4    10 1   
     8     4    30 1   
     9     5     6 1   
    10     5    31 1   
    11     5    32 1   
    12     6     7 1   
    13     6    33 1   
    14     6    34 1   
    15     7     8 1   
    16     7    35 1   
    17     7    36 1   
    18     8     9 1   
    19     8    37 1   
    20     8    38 1   
    21     9    10 1   
    22     9    39 1   
    23     9    40 1   
    24    10    41 1   
    25    10    42 1   
    26    11    12 1   
    27    11    16 1   
    28    11    43 1   
    29    12    13 1   
    30    12    44 1   
    31    12    45 1   
    32    13    14 1   
    33    13    46 1   
    34    13    47 1   
    35    14    15 1   
    36    14    17 1   
    37    15    16 1   
    38    15    48 1   
    39    15    49 1   
    40    16    50 1   
    41    16    51 1   
    42    17    18 2   
    43    17    19 2   
    44    17    20 1   
    45    20    21 ar  
    46    20    27 ar  
    47    21    22 1   
    48    21    23 ar  
    49    22    52 1   
    50    22    53 1   
    51    22    54 1   
    52    23    24 ar  
    53    23    55 1   
    54    24    25 1   
    55    24    26 ar  
    56    25    56 1   
    57    25    57 1   
    58    25    58 1   
    59    26    27 ar  
    60    26    59 1   
    61    27    28 1   
    62    28    60 1   
    63    28    61 1   
    64    28    62 1   
@<TRIPOS>SUBSTRUCTURE
     1 I23         1 TEMP              0 ****  ****    0 ROOT
