@<TRIPOS>MOLECULE
I24
   60    63     1     0     0
SMALL
bcc


@<TRIPOS>ATOM
      1 N1           0.0000     0.0000     0.0000 nb         1 I24      -0.755000
      2 C2           1.3270     0.0000     0.0000 ca         1 I24       0.883300
      3 N3           2.0730     0.0000     1.1030 nb         1 I24      -0.757000
      4 C4           1.4910    -0.0130     2.3150 ca         1 I24       0.629200
      5 C5          -0.6300     0.0080     1.1740 ca         1 I24       0.313800
      6 C6           0.0970    -0.0030     2.3760 ca         1 I24      -0.286200
      7 N7          -0.8030     0.0050     3.4170 nc         1 I24      -0.470100
      8 C8          -1.9980     0.0220     2.9010 cd         1 I24       0.236700
      9 N9          -1.9400     0.0130     1.5210 na         1 I24       0.203000
     10 N10          2.2720     0.0080     3.4620 nu         1 I24      -0.456900
     11 O11          2.0020    -0.0270    -1.1750 os         1 I24      -0.391100
     12 C12          3.6730     0.4570     3.3760 c3         1 I24       0.146800
     13 C13          4.4650     0.1080     4.6380 c3         1 I24       0.135800
     14 N14          4.2280    -1.2730     5.1100 n3         1 I24      -0.531600
     15 C15          4.5050    -2.2270     4.0070 c3         1 I24       0.100300
     16 C16          4.3720    -3.6490     4.5400 c3         1 I24       0.207900
     17 O17          5.4650    -3.8390     5.4430 os         1 I24      -0.406600
     18 C18          5.3030    -2.9860     6.6010 c3         1 I24       0.207900
     19 C19          5.2040    -1.5010     6.2030 c3         1 I24       0.100300
     20 C20          1.0890    -0.3670    -2.2400 c3         1 I24       0.159400
     21 C21          0.9370    -1.8730    -2.4030 c3         1 I24      -0.059400
     22 C22          0.3980    -2.1050    -3.8290 c3         1 I24      -0.027400
     23 C23          0.0810    -3.5900    -3.9590 c3         1 I24      -0.001100
     24 C24         -3.0520     0.0150     0.5820 c3         1 I24       0.040600
     25 C25         -3.2490    -1.3130    -0.1170 ca         1 I24      -0.195300
     26 C26         -3.7500    -2.3780     0.6110 ca         1 I24       0.156400
     27 C27         -3.9680    -3.6030     0.0050 ca         1 I24      -0.143000
     28 C28         -3.7000    -3.7570    -1.3480 ca         1 I24      -0.037000
     29 C29         -3.2090    -2.6840    -2.0990 ca         1 I24      -0.143000
     30 C30         -2.9850    -1.4710    -1.4650 ca         1 I24       0.156400
     31 F31         -3.9930    -2.1660     1.9200 f          1 I24      -0.121900
     32 F32         -2.4930    -0.4060    -2.1350 f          1 I24      -0.121900
     33 H10          1.8520    -0.1500     4.3560 hn         1 I24       0.317800
     34 H8          -2.9160     0.0410     3.4770 h5         1 I24       0.032800
     35 H241        -2.8730     0.7780    -0.1660 h1         1 I24       0.046700
     36 H242        -3.9600     0.2620     1.1200 h1         1 I24       0.046700
     37 H121         3.6910     1.5310     3.2360 h1         1 I24       0.032700
     38 H122         4.1430    -0.0170     2.5230 h1         1 I24       0.032700
     39 H201         0.1190     0.0630    -2.0240 h1         1 I24       0.037700
     40 H202         1.4610     0.0510    -3.1680 h1         1 I24       0.037700
     41 H131         4.1850     0.7970     5.4260 h1         1 I24       0.016700
     42 H132         5.5210     0.2270     4.4300 h1         1 I24       0.016700
     43 H151         3.7910    -2.0720     3.2070 h1         1 I24       0.022950
     44 H152         5.5110    -2.0710     3.6370 h1         1 I24       0.022950
     45 H191         6.1790    -1.1610     5.8770 h1         1 I24       0.022950
     46 H192         4.8980    -0.9270     7.0690 h1         1 I24       0.022950
     47 H161         4.4370    -4.3590     3.7240 h1         1 I24       0.014700
     48 H162         3.4320    -3.7620     5.0660 h1         1 I24       0.014700
     49 H181         6.1550    -3.1180     7.2580 h1         1 I24       0.014700
     50 H182         4.3990    -3.2710     7.1250 h1         1 I24       0.014700
     51 H211         1.8980    -2.3580    -2.2850 hc         1 I24       0.026700
     52 H212         0.2350    -2.2560    -1.6730 hc         1 I24       0.026700
     53 H221         1.1490    -1.8230    -4.5570 hc         1 I24       0.016200
     54 H222        -0.5020    -1.5210    -3.9820 hc         1 I24       0.016200
     55 H231         0.9910    -4.1350    -4.1800 hc         1 I24       0.001033
     56 H232        -0.3400    -3.9530    -3.0290 hc         1 I24       0.001033
     57 H233        -0.6330    -3.7380    -4.7600 hc         1 I24       0.001033
     58 H27         -4.3540    -4.4350     0.5820 ha         1 I24       0.128000
     59 H28         -3.8750    -4.7130    -1.8250 ha         1 I24       0.112000
     60 H29         -3.0000    -2.8010    -3.1560 ha         1 I24       0.128000
@<TRIPOS>BOND
     1     1     2 ar  
     2     1     5 ar  
     3     2     3 ar  
     4     2    11 1   
     5     3     4 ar  
     6     4     6 ar  
     7     4    10 1   
     8     5     6 ar  
     9     5     9 1   
    10     6     7 1   
    11     7     8 2   
    12     8     9 1   
    13     8    34 1   
    14     9    24 1   
    15    10    12 1   
    16    10    33 1   
    17    11    20 1   
    18    12    13 1   
    19    12    37 1   
    20    12    38 1   
    21    13    14 1   
    22    13    41 1   
    23    13    42 1   
    24    14    15 1   
    25    14    19 1   
    26    15    16 1   
    27    15    43 1   
    28    15    44 1   
    29    16    17 1   
    30    16    47 1   
    31    16    48 1   
    32    17    18 1   
    33    18    19 1   
    34    18    49 1   
    35    18    50 1   
    36    19    45 1   
    37    19    46 1   
    38    20    21 1   
    39    20    39 1   
    40    20    40 1   
    41    21    22 1   
    42    21    51 1   
    43    21    52 1   
    44    22    23 1   
    45    22    53 1   
    46    22    54 1   
    47    23    55 1   
    48    23    56 1   
    49    23    57 1   
    50    24    25 1   
    51    24    35 1   
    52    24    36 1   
    53    25    26 ar  
    54    25    30 ar  
    55    26    27 ar  
    56    26    31 1   
    57    27    28 ar  
    58    27    58 1   
    59    28    29 ar  
    60    28    59 1   
    61    29    30 ar  
    62    29    60 1   
    63    30    32 1   
@<TRIPOS>SUBSTRUCTURE
     1 I24         1 TEMP              0 ****  ****    0 ROOT
