@<TRIPOS>MOLECULE
molecule
   65    66     1     0     0
SMALL
bcc


@<TRIPOS>ATOM
      1 O17          0.0000     0.0000     0.0000 o          1 I25      -0.804800
      2 C15          1.3420     0.0000     0.0000 c          1 I25       0.875600
      3 O16          1.9470    -0.0020    -1.0450 o          1 I25      -0.804800
      4 C13          2.0960     0.0000     1.3050 c3         1 I25       0.143800
      5 N14          3.5360    -0.0000     1.0380 nu         1 I25      -0.702600
      6 C1           4.2030     1.2000     0.8070 ca         1 I25       0.282600
      7 C6           5.5700     1.1980     0.5530 ca         1 I25      -0.203500
      8 C4           6.2310     2.3840     0.3240 ca         1 I25      -0.035000
      9 C3           5.5270     3.5910     0.3470 ca         1 I25      -0.313900
     10 C18          6.2350     4.8650     0.1010 ce         1 I25       0.567800
     11 N20          7.5160     4.8650    -0.1380 n2         1 I25      -0.761100
     12 N19          5.5380     6.0550     0.1230 nz         1 I25      -0.799600
     13 C5           4.1540     3.5890     0.6010 ca         1 I25      -0.035000
     14 C2           3.4970     2.4000     0.8240 ca         1 I25      -0.203500
     15 C11          1.7310    -1.2300     2.0960 ca         1 I25      -0.015300
     16 C8           2.3200    -2.4430     1.7960 ca         1 I25      -0.166000
     17 C9           0.8120    -1.1420     3.1250 ca         1 I25      -0.137000
     18 C10          0.4750    -2.2680     3.8530 ca         1 I25      -0.044300
     19 C21         -0.5270    -2.1690     4.9730 c3         1 I25      -0.036100
     20 C22         -1.9330    -2.4160     4.4230 c3         1 I25      -0.088100
     21 C12          1.0570    -3.4850     3.5530 ca         1 I25      -0.226000
     22 C7           1.9840    -3.5740     2.5250 ca         1 I25       0.147100
     23 O23          2.5620    -4.7700     2.2320 os         1 I25      -0.337900
     24 C24          2.1680    -5.8920     3.0230 c3         1 I25       0.153400
     25 C25          2.9180    -7.1380     2.5490 c3         1 I25      -0.058000
     26 C26          2.5830    -7.4070     1.0800 c3         1 I25      -0.081600
     27 C27          4.4240    -6.9140     2.6960 c3         1 I25      -0.081600
     28 C28          2.4960    -8.3400     3.3960 c3         1 I25       0.168800
     29 N29          1.0580    -8.5830     3.2200 n3         1 I25      -0.733600
     30 C31          0.8080    -9.4350     2.0490 c3         1 I25       0.149600
     31 C30          0.4700    -9.1690     4.4330 c3         1 I25       0.149600
     32 H13          1.8340     0.8850     1.8730 h1         1 I25       0.062700
     33 H14          4.0400    -0.8640     1.0150 hn         1 I25       0.453800
     34 H6           6.1160     0.2620     0.5350 ha         1 I25       0.162000
     35 H2           2.4320     2.3990     1.0220 ha         1 I25       0.162000
     36 H4           7.2960     2.3820     0.1260 ha         1 I25       0.118500
     37 H5           3.6050     4.5230     0.6170 ha         1 I25       0.118500
     38 H20          7.9960     5.7270    -0.3050 hn         1 I25       0.405400
     39 H191         4.8250     6.0380    -0.5790 hn         1 I25       0.454467
     40 H192         5.1170     6.1780     1.0230 hn         1 I25       0.454467
     41 H8           3.0440    -2.5100     0.9930 ha         1 I25       0.139000
     42 H9           0.3640    -0.1860     3.3680 ha         1 I25       0.134000
     43 H211        -0.2990    -2.9120     5.7290 hc         1 I25       0.039200
     44 H212        -0.4800    -1.1800     5.4140 hc         1 I25       0.039200
     45 H12          0.7930    -4.3670     4.1240 ha         1 I25       0.132000
     46 H221        -1.8760    -3.0900     3.5760 hc         1 I25       0.038367
     47 H222        -2.5500    -2.8590     5.1950 hc         1 I25       0.038367
     48 H223        -2.3680    -1.4760     4.1080 hc         1 I25       0.038367
     49 H241         2.4060    -5.7010     4.0630 h1         1 I25       0.043200
     50 H242         1.1020    -6.0510     2.9200 h1         1 I25       0.043200
     51 H261         2.8820    -8.4150     0.8200 hc         1 I25       0.038700
     52 H262         3.1130    -6.7000     0.4540 hc         1 I25       0.038700
     53 H263         1.5160    -7.2960     0.9270 hc         1 I25       0.038700
     54 H271         4.7530    -6.1880     1.9620 hc         1 I25       0.038700
     55 H272         4.9450    -7.8500     2.5370 hc         1 I25       0.038700
     56 H273         4.6390    -6.5440     3.6910 hc         1 I25       0.038700
     57 H281         2.7020    -8.1370     4.4400 h1         1 I25       0.036200
     58 H282         3.0510    -9.2160     3.0820 h1         1 I25       0.036200
     59 H311         0.1250   -10.2310     2.3210 h1         1 I25       0.032533
     60 H312         1.7420    -9.8630     1.7070 h1         1 I25       0.032533
     61 H313         0.3710    -8.8400     1.2560 h1         1 I25       0.032533
     62 H301        -0.5880    -9.3370     4.2760 h1         1 I25       0.032533
     63 H302         0.6090    -8.4910     5.2650 h1         1 I25       0.032533
     64 H303         0.9570   -10.1120     4.6500 h1         1 I25       0.032533
     65 H193         6.1660     6.8130    -0.0590 hn         1 I25       0.454467
@<TRIPOS>BOND
     1     1     2 1
     2     2     3 1
     3     2     4 1
     4     4     5 1
     5     4    15 1
     6     4    32 1
     7     5     6 1
     8     5    33 1
     9     6     7 ar
    10     6    14 ar
    11     7     8 ar
    12     7    34 1
    13     8     9 ar
    14     8    36 1
    15     9    10 1
    16     9    13 ar
    17    10    11 2
    18    10    12 1
    19    11    38 1
    20    12    39 1
    21    12    40 1
    22    13    14 ar
    23    13    37 1
    24    14    35 1
    25    15    16 ar
    26    15    17 ar
    27    16    22 ar
    28    16    41 1
    29    17    18 ar
    30    17    42 1
    31    18    19 1
    32    18    21 ar
    33    19    20 1
    34    19    43 1
    35    19    44 1
    36    20    46 1
    37    20    47 1
    38    20    48 1
    39    21    22 ar
    40    21    45 1
    41    22    23 1
    42    23    24 1
    43    24    25 1
    44    24    49 1
    45    24    50 1
    46    25    26 1
    47    25    27 1
    48    25    28 1
    49    26    51 1
    50    26    52 1
    51    26    53 1
    52    27    54 1
    53    27    55 1
    54    27    56 1
    55    28    29 1
    56    28    57 1
    57    28    58 1
    58    29    30 1
    59    29    31 1
    60    30    59 1
    61    30    60 1
    62    30    61 1
    63    31    62 1
    64    31    63 1
    65    31    64 1
    66    65    12 1
@<TRIPOS>SUBSTRUCTURE
     1 I25         1 TEMP              0 ****  ****    0 ROOT
