@<TRIPOS>MOLECULE
I25
   65    66     1     0     0
SMALL
bcc


@<TRIPOS>ATOM
      1 O17          0.0000     0.0000     0.0000 o          1 I25      -0.854800
      2 C15          1.3420     0.0000     0.0000 c          1 I25       0.962600
      3 O16          1.9470    -0.0020    -1.0450 o          1 I25      -0.854800
      4 C13          2.0960     0.0000     1.3050 c3         1 I25       0.027800
      5 N14          3.5360    -0.0000     1.0380 nu         1 I25      -0.229600
      6 C1           4.2030     1.2000     0.8070 ca         1 I25       0.119600
      7 C6           5.5700     1.1980     0.5530 ca         1 I25      -0.177500
      8 C4           6.2310     2.3840     0.3240 ca         1 I25      -0.012000
      9 C3           5.5270     3.5910     0.3470 ca         1 I25      -0.370900
     10 C18          6.2350     4.8650     0.1010 ce         1 I25       0.261800
     11 N20          7.5160     4.8650    -0.1380 n2         1 I25      -0.622100
     12 N19          5.5380     6.0550     0.1230 nz         1 I25       0.189400
     13 C5           4.1540     3.5890     0.6010 ca         1 I25      -0.012000
     14 C2           3.4970     2.4000     0.8240 ca         1 I25      -0.177500
     15 C11          1.7310    -1.2300     2.0960 ca         1 I25      -0.012300
     16 C8           2.3200    -2.4430     1.7960 ca         1 I25      -0.158000
     17 C9           0.8120    -1.1420     3.1250 ca         1 I25      -0.112000
     18 C10          0.4750    -2.2680     3.8530 ca         1 I25      -0.046300
     19 C21         -0.5270    -2.1690     4.9730 c3         1 I25       0.030900
     20 C22         -1.9330    -2.4160     4.4230 c3         1 I25       0.004900
     21 C12          1.0570    -3.4850     3.5530 ca         1 I25      -0.216000
     22 C7           1.9840    -3.5740     2.5250 ca         1 I25       0.159100
     23 O23          2.5620    -4.7700     2.2320 os         1 I25      -0.308900
     24 C24          2.1680    -5.8920     3.0230 c3         1 I25       0.204400
     25 C25          2.9180    -7.1380     2.5490 c3         1 I25      -0.069000
     26 C26          2.5830    -7.4070     1.0800 c3         1 I25      -0.001600
     27 C27          4.4240    -6.9140     2.6960 c3         1 I25      -0.001600
     28 C28          2.4960    -8.3400     3.3960 c3         1 I25       0.153800
     29 N29          1.0580    -8.5830     3.2200 n3         1 I25      -0.544600
     30 C31          0.8080    -9.4350     2.0490 c3         1 I25       0.174600
     31 C30          0.4700    -9.1690     4.4330 c3         1 I25       0.174600
     32 H13          1.8340     0.8850     1.8730 h1         1 I25       0.046700
     33 H14          4.0440    -0.8620     1.0370 hn         1 I25       0.295800
     34 H6           6.1160     0.2620     0.5350 ha         1 I25       0.137500
     35 H2           2.4320     2.3990     1.0220 ha         1 I25       0.137500
     36 H4           7.2960     2.3820     0.1260 ha         1 I25       0.078500
     37 H5           3.6050     4.5230     0.6170 ha         1 I25       0.078500
     38 H20          8.0230     4.0020    -0.1550 hn         1 I25       0.378400
     39 H191         5.1190     6.1800     1.0240 hn         1 I25       0.213133
     40 H192         6.1650     6.8130    -0.0610 hn         1 I25       0.213133
     41 H8           3.0440    -2.5100     0.9930 ha         1 I25       0.118000
     42 H9           0.3660    -0.1860     3.3700 ha         1 I25       0.113000
     43 H211        -0.4800    -1.1800     5.4140 hc         1 I25       0.008200
     44 H212        -0.2990    -2.9120     5.7290 hc         1 I25       0.008200
     45 H12          0.7930    -4.3670     4.1240 ha         1 I25       0.122000
     46 H221        -2.0260    -3.4530     4.1230 hc         1 I25       0.005700
     47 H222        -2.6650    -2.1960     5.1910 hc         1 I25       0.005700
     48 H223        -2.1040    -1.7760     3.5670 hc         1 I25       0.005700
     49 H241         1.1020    -6.0510     2.9200 h1         1 I25       0.012700
     50 H242         2.4060    -5.7010     4.0630 h1         1 I25       0.012700
     51 H261         3.1020    -6.6910     0.4540 hc         1 I25       0.010533
     52 H262         2.8950    -8.4100     0.8160 hc         1 I25       0.010533
     53 H263         1.5140    -7.3100     0.9300 hc         1 I25       0.010533
     54 H271         4.7570    -6.2030     1.9490 hc         1 I25       0.010533
     55 H272         4.9440    -7.8540     2.5580 hc         1 I25       0.010533
     56 H273         4.6360    -6.5250     3.6840 hc         1 I25       0.010533
     57 H281         2.7020    -8.1370     4.4400 h1         1 I25       0.014200
     58 H282         3.0510    -9.2160     3.0820 h1         1 I25       0.014200
     59 H311         1.7440    -9.8540     1.7000 h1         1 I25       0.003533
     60 H312         0.1340   -10.2380     2.3240 h1         1 I25       0.003533
     61 H313         0.3610    -8.8430     1.2600 h1         1 I25       0.003533
     62 H301         0.9760   -10.0980     4.6670 h1         1 I25       0.003533
     63 H302        -0.5820    -9.3640     4.2660 h1         1 I25       0.003533
     64 H303         0.5840    -8.4780     5.2590 h1         1 I25       0.003533
     65 H193         4.8190     6.0340    -0.5730 hn         1 I25       0.213133
@<TRIPOS>BOND
     1     1     2 1   
     2     2     3 1   
     3     2     4 1   
     4     4     5 1   
     5     4    15 1   
     6     4    32 1   
     7     5     6 1   
     8     5    33 1   
     9     6     7 ar  
    10     6    14 ar  
    11     7     8 ar  
    12     7    34 1   
    13     8     9 ar  
    14     8    36 1   
    15     9    10 1   
    16     9    13 ar  
    17    10    11 2   
    18    10    12 1   
    19    11    38 1   
    20    12    39 1   
    21    12    40 1   
    22    12    65 1   
    23    13    14 ar  
    24    13    37 1   
    25    14    35 1   
    26    15    16 ar  
    27    15    17 ar  
    28    16    22 ar  
    29    16    41 1   
    30    17    18 ar  
    31    17    42 1   
    32    18    19 1   
    33    18    21 ar  
    34    19    20 1   
    35    19    43 1   
    36    19    44 1   
    37    20    46 1   
    38    20    47 1   
    39    20    48 1   
    40    21    22 ar  
    41    21    45 1   
    42    22    23 1   
    43    23    24 1   
    44    24    25 1   
    45    24    49 1   
    46    24    50 1   
    47    25    26 1   
    48    25    27 1   
    49    25    28 1   
    50    26    51 1   
    51    26    52 1   
    52    26    53 1   
    53    27    54 1   
    54    27    55 1   
    55    27    56 1   
    56    28    29 1   
    57    28    57 1   
    58    28    58 1   
    59    29    30 1   
    60    29    31 1   
    61    30    59 1   
    62    30    60 1   
    63    30    61 1   
    64    31    62 1   
    65    31    63 1   
    66    31    64 1   
@<TRIPOS>SUBSTRUCTURE
     1 I25         1 TEMP              0 ****  ****    0 ROOT
