@<TRIPOS>MOLECULE
molecule
   65    66     1     0     0
SMALL
bcc


@<TRIPOS>ATOM
      1 O17          0.0000     0.0000     0.0000 o          1 I26      -0.801800
      2 C15          1.2090     0.0000     0.0000 c          1 I26       0.872600
      3 O16          1.8790     0.0060    -1.1630 o          1 I26      -0.801800
      4 C13          1.9620     0.0000     1.3040 c3         1 I26       0.147800
      5 N14          1.0100     0.0000     2.4180 nu         1 I26      -0.709600
      6 C1           0.4570    -1.1990     2.8620 ca         1 I26       0.284600
      7 C6          -0.4470    -1.1970     3.9190 ca         1 I26      -0.201500
      8 C4          -0.9950    -2.3810     4.3590 ca         1 I26      -0.036000
      9 C3          -0.6440    -3.5830     3.7430 ca         1 I26      -0.310900
     10 C18         -1.2320    -4.8560     4.2130 ce         1 I26       0.566800
     11 N20         -0.8840    -6.0430     3.6030 nz         1 I26      -0.798600
     12 N19         -2.0800    -4.8560     5.2040 n2         1 I26      -0.759100
     13 C5           0.2630    -3.5830     2.6810 ca         1 I26      -0.036000
     14 C2           0.8050    -2.3950     2.2410 ca         1 I26      -0.201500
     15 C11          2.8290     1.2310     1.3840 ca         1 I26      -0.057300
     16 C8           4.1070     1.2110     0.8570 ca         1 I26       0.135900
     17 C9           2.3420     2.3810     1.9800 ca         1 I26      -0.150000
     18 C10          3.1350     3.5110     2.0540 ca         1 I26      -0.059300
     19 C21          2.6000     4.7620     2.7020 c3         1 I26      -0.036100
     20 C22          2.9320     4.7440     4.1960 c3         1 I26      -0.089100
     21 C12          4.4150     3.4960     1.5340 ca         1 I26      -0.206000
     22 C7           4.9040     2.3480     0.9310 ca         1 I26       0.112100
     23 O23          6.1620     2.3320     0.4140 os         1 I26      -0.321900
     24 C24          6.9240     3.5360     0.5260 c3         1 I26       0.152400
     25 C25          8.3010     3.3270    -0.1080 c3         1 I26      -0.056000
     26 C26          9.0290     2.1930     0.6150 c3         1 I26      -0.082100
     27 C27          8.1330     2.9660    -1.5850 c3         1 I26      -0.082100
     28 C28          9.1170     4.6160     0.0120 c3         1 I26       0.166800
     29 N29          9.2730     4.9660     1.4310 n3         1 I26      -0.736600
     30 C31         10.4470     4.3010     2.0110 c3         1 I26       0.149600
     31 C30          9.3520     6.4220     1.6070 c3         1 I26       0.149600
     32 F20          4.5800     0.0900     0.2710 f          1 I26      -0.118900
     33 H13          2.5850    -0.8840     1.3620 h1         1 I26       0.073700
     34 H14          0.7240     0.8660     2.8310 hn         1 I26       0.451800
     35 H6          -0.7190    -0.2640     4.3970 ha         1 I26       0.162500
     36 H2           1.5090    -2.3930     1.4180 ha         1 I26       0.162500
     37 H4          -1.6990    -2.3790     5.1830 ha         1 I26       0.119500
     38 H5           0.5360    -4.5140     2.2000 ha         1 I26       0.119500
     39 H19         -2.4780    -5.7170     5.5220 hn         1 I26       0.404400
     40 H201        -1.3690    -6.7990     4.0440 hn         1 I26       0.454800
     41 H202         0.1030    -6.1850     3.6890 hn         1 I26       0.454800
     42 H9           1.3270     2.4060     2.3570 ha         1 I26       0.127000
     43 H211         3.0560     5.6310     2.2420 hc         1 I26       0.048200
     44 H212         1.5260     4.8060     2.5710 hc         1 I26       0.048200
     45 H12          5.0340     4.3830     1.5930 ha         1 I26       0.139000
     46 H221         3.8460     4.1860     4.3560 hc         1 I26       0.033367
     47 H222         2.1220     4.2740     4.7400 hc         1 I26       0.033367
     48 H223         3.0620     5.7600     4.5490 hc         1 I26       0.033367
     49 H241         7.0430     3.7910     1.5720 h1         1 I26       0.043700
     50 H242         6.4080     4.3390     0.0140 h1         1 I26       0.043700
     51 H261         8.6380     1.2400     0.2790 hc         1 I26       0.039867
     52 H262        10.0880     2.2460     0.3960 hc         1 I26       0.039867
     53 H263         8.8760     2.2890     1.6840 hc         1 I26       0.039867
     54 H271         7.7350     1.9620    -1.6680 hc         1 I26       0.039867
     55 H272         7.4500     3.6650    -2.0520 hc         1 I26       0.039867
     56 H273         9.0950     3.0160    -2.0800 hc         1 I26       0.039867
     57 H281        10.0930     4.4670    -0.4330 h1         1 I26       0.038700
     58 H282         8.6030     5.4180    -0.5040 h1         1 I26       0.038700
     59 H311        11.0300     5.0230     2.5710 h1         1 I26       0.032033
     60 H312        10.1230     3.5070     2.6720 h1         1 I26       0.032033
     61 H313        11.0550     3.8840     1.2170 h1         1 I26       0.032033
     62 H301         8.4540     6.8830     1.2130 h1         1 I26       0.032033
     63 H302         9.4430     6.6540     2.6620 h1         1 I26       0.032033
     64 H303        10.2160     6.8040     1.0770 h1         1 I26       0.032033
     65 H203        -1.1340    -6.0060     2.6350 hn         1 I26       0.454800
@<TRIPOS>BOND
     1     1     2 1
     2     2     4 1
     3     2     3 1
     4     4    33 1
     5     4     5 1
     6     4    15 1
     7     5     6 1
     8     5    34 1
     9     6     7 ar
    10     6    14 ar
    11     7     8 ar
    12     7    35 1
    13     8     9 ar
    14     8    37 1
    15     9    10 1
    16     9    13 ar
    17    10    12 2
    18    10    11 1
    19    11    40 1
    20    11    41 1
    21    12    39 1
    22    13    14 ar
    23    13    38 1
    24    14    36 1
    25    15    16 ar
    26    15    17 ar
    27    16    22 ar
    28    16    32 1
    29    17    18 ar
    30    17    42 1
    31    18    19 1
    32    18    21 ar
    33    19    20 1
    34    19    43 1
    35    19    44 1
    36    20    46 1
    37    20    47 1
    38    20    48 1
    39    21    22 ar
    40    21    45 1
    41    22    23 1
    42    23    24 1
    43    24    25 1
    44    24    49 1
    45    24    50 1
    46    25    26 1
    47    25    27 1
    48    25    28 1
    49    26    51 1
    50    26    52 1
    51    26    53 1
    52    27    54 1
    53    27    55 1
    54    27    56 1
    55    28    29 1
    56    28    57 1
    57    28    58 1
    58    29    30 1
    59    29    31 1
    60    30    59 1
    61    30    60 1
    62    30    61 1
    63    31    62 1
    64    31    63 1
    65    31    64 1
    66    65    11 1
@<TRIPOS>SUBSTRUCTURE
     1 I26         1 TEMP              0 ****  ****    0 ROOT
