@<TRIPOS>MOLECULE
I26
   65    66     1     0     0
SMALL
bcc


@<TRIPOS>ATOM
      1 O17          0.0000     0.0000     0.0000 o          1 I26      -0.851300
      2 C15          1.2090     0.0000     0.0000 c          1 I26       0.957600
      3 O16          1.8790     0.0060    -1.1630 o          1 I26      -0.851300
      4 C13          1.9620     0.0000     1.3040 c3         1 I26       0.034800
      5 N14          1.0100     0.0000     2.4180 nu         1 I26      -0.245600
      6 C1           0.4570    -1.1990     2.8620 ca         1 I26       0.124600
      7 C6          -0.4470    -1.1970     3.9190 ca         1 I26      -0.175000
      8 C4          -0.9950    -2.3810     4.3590 ca         1 I26      -0.013000
      9 C3          -0.6440    -3.5830     3.7430 ca         1 I26      -0.366900
     10 C18         -1.2320    -4.8560     4.2130 ce         1 I26       0.259800
     11 N20         -0.8840    -6.0430     3.6030 nz         1 I26       0.190400
     12 N19         -2.0800    -4.8560     5.2040 n2         1 I26      -0.619100
     13 C5           0.2630    -3.5830     2.6810 ca         1 I26      -0.013000
     14 C2           0.8050    -2.3950     2.2410 ca         1 I26      -0.175000
     15 C11          2.8290     1.2310     1.3840 ca         1 I26      -0.047300
     16 C8           4.1070     1.2110     0.8570 ca         1 I26       0.111900
     17 C9           2.3420     2.3810     1.9800 ca         1 I26      -0.142000
     18 C10          3.1350     3.5110     2.0540 ca         1 I26      -0.054300
     19 C21          2.6000     4.7620     2.7020 c3         1 I26       0.028900
     20 C22          2.9320     4.7440     4.1960 c3         1 I26       0.004900
     21 C12          4.4150     3.4960     1.5340 ca         1 I26      -0.200000
     22 C7           4.9040     2.3480     0.9310 ca         1 I26       0.130100
     23 O23          6.1620     2.3320     0.4140 os         1 I26      -0.290900
     24 C24          6.9240     3.5360     0.5260 c3         1 I26       0.202400
     25 C25          8.3010     3.3270    -0.1080 c3         1 I26      -0.067000
     26 C26          9.0290     2.1930     0.6150 c3         1 I26      -0.002100
     27 C27          8.1330     2.9660    -1.5850 c3         1 I26      -0.002100
     28 C28          9.1170     4.6160     0.0120 c3         1 I26       0.152800
     29 N29          9.2730     4.9660     1.4310 n3         1 I26      -0.547600
     30 C31         10.4470     4.3010     2.0110 c3         1 I26       0.175600
     31 C30          9.3520     6.4220     1.6070 c3         1 I26       0.175600
     32 F20          4.5800     0.0900     0.2710 f          1 I26      -0.112900
     33 H13          2.5850    -0.8840     1.3620 h1         1 I26       0.056700
     34 H14          0.7450     0.8640     2.8490 hn         1 I26       0.297800
     35 H6          -0.7190    -0.2640     4.3970 ha         1 I26       0.138500
     36 H2           1.5090    -2.3930     1.4180 ha         1 I26       0.138500
     37 H4          -1.6990    -2.3790     5.1830 ha         1 I26       0.079000
     38 H5           0.5360    -4.5140     2.2000 ha         1 I26       0.079000
     39 H19         -2.3330    -3.9960     5.6470 hn         1 I26       0.378400
     40 H201         0.1030    -6.1860     3.6900 hn         1 I26       0.213800
     41 H202        -1.3700    -6.7990     4.0430 hn         1 I26       0.213800
     42 H9           1.3270     2.4060     2.3570 ha         1 I26       0.111000
     43 H211         3.0560     5.6310     2.2420 hc         1 I26       0.017700
     44 H212         1.5260     4.8060     2.5710 hc         1 I26       0.017700
     45 H12          5.0340     4.3830     1.5930 ha         1 I26       0.126000
     46 H221         3.1960     5.7440     4.5190 hc         1 I26       0.000700
     47 H222         3.7650     4.0750     4.3720 hc         1 I26       0.000700
     48 H223         2.0690     4.4010     4.7530 hc         1 I26       0.000700
     49 H241         7.0430     3.7910     1.5720 h1         1 I26       0.012700
     50 H242         6.4080     4.3390     0.0140 h1         1 I26       0.012700
     51 H261         8.8820     2.2920     1.6840 hc         1 I26       0.011700
     52 H262         8.6330     1.2400     0.2840 hc         1 I26       0.011700
     53 H263        10.0880     2.2420     0.3910 hc         1 I26       0.011700
     54 H271         7.4500     3.6650    -2.0520 hc         1 I26       0.011700
     55 H272         7.7350     1.9620    -1.6680 hc         1 I26       0.011700
     56 H273         9.0950     3.0160    -2.0800 hc         1 I26       0.011700
     57 H281         8.6030     5.4180    -0.5040 h1         1 I26       0.016200
     58 H282        10.0930     4.4670    -0.4330 h1         1 I26       0.016200
     59 H311        11.0560     3.8850     1.2170 h1         1 I26       0.002867
     60 H312        10.1230     3.5070     2.6720 h1         1 I26       0.002867
     61 H313        11.0300     5.0220     2.5710 h1         1 I26       0.002867
     62 H301         9.4560     6.6530     2.6600 h1         1 I26       0.002867
     63 H302        10.2090     6.8060     1.0670 h1         1 I26       0.002867
     64 H303         8.4480     6.8820     1.2250 h1         1 I26       0.002867
     65 H203        -1.1380    -6.0080     2.6360 hn         1 I26       0.213800
@<TRIPOS>BOND
     1     1     2 1   
     2     2     3 1   
     3     2     4 1   
     4     4     5 1   
     5     4    15 1   
     6     4    33 1   
     7     5     6 1   
     8     5    34 1   
     9     6     7 ar  
    10     6    14 ar  
    11     7     8 ar  
    12     7    35 1   
    13     8     9 ar  
    14     8    37 1   
    15     9    10 1   
    16     9    13 ar  
    17    10    11 1   
    18    10    12 2   
    19    11    40 1   
    20    11    41 1   
    21    11    65 1   
    22    12    39 1   
    23    13    14 ar  
    24    13    38 1   
    25    14    36 1   
    26    15    16 ar  
    27    15    17 ar  
    28    16    22 ar  
    29    16    32 1   
    30    17    18 ar  
    31    17    42 1   
    32    18    19 1   
    33    18    21 ar  
    34    19    20 1   
    35    19    43 1   
    36    19    44 1   
    37    20    46 1   
    38    20    47 1   
    39    20    48 1   
    40    21    22 ar  
    41    21    45 1   
    42    22    23 1   
    43    23    24 1   
    44    24    25 1   
    45    24    49 1   
    46    24    50 1   
    47    25    26 1   
    48    25    27 1   
    49    25    28 1   
    50    26    51 1   
    51    26    52 1   
    52    26    53 1   
    53    27    54 1   
    54    27    55 1   
    55    27    56 1   
    56    28    29 1   
    57    28    57 1   
    58    28    58 1   
    59    29    30 1   
    60    29    31 1   
    61    30    59 1   
    62    30    60 1   
    63    30    61 1   
    64    31    62 1   
    65    31    63 1   
    66    31    64 1   
@<TRIPOS>SUBSTRUCTURE
     1 I26         1 TEMP              0 ****  ****    0 ROOT
