@<TRIPOS>MOLECULE
I29
   71    74     1     0     0
SMALL
bcc


@<TRIPOS>ATOM
      1 N1           0.0000     0.0000     0.0000 n          1 I29      -0.058300
      2 C5           1.4730     0.0000     0.0000 c3         1 I29       0.020700
      3 C57          2.0150     1.2600    -0.6800 c3         1 I29      -0.111100
      4 C51          2.0060    -1.2400    -0.6710 ca         1 I29      -0.101300
      5 C4           1.8220     0.0000     1.5020 c3         1 I29       0.178500
      6 C47          2.6120     1.2570     1.8700 c3         1 I29      -0.003100
      7 C41          2.6030    -1.2380     1.8630 ca         1 I29      -0.078300
      8 N3           0.5130    -0.0000     2.1690 n2         1 I29      -0.603900
      9 C2          -0.4280    -0.0000     1.3000 c2         1 I29       0.349900
     10 C21         -1.8870     0.0010     1.6780 c3         1 I29      -0.013400
     11 C56          3.3570    -1.3530    -0.9420 ca         1 I29      -0.095500
     12 C55          3.8460    -2.4900    -1.5570 ca         1 I29      -0.087500
     13 C54          2.9840    -3.5150    -1.9020 ca         1 I29      -0.037600
     14 Cl5          3.5970    -4.9440    -2.6730 cl         1 I29      -0.015400
     15 C53          1.6320    -3.4020    -1.6300 ca         1 I29      -0.087500
     16 C52          1.1450    -2.2660    -1.0100 ca         1 I29      -0.095500
     17 C42          3.9830    -1.1940     1.9120 ca         1 I29      -0.084000
     18 C43          4.7000    -2.3290     2.2430 ca         1 I29      -0.098000
     19 C44          4.0350    -3.5080     2.5250 ca         1 I29      -0.031600
     20 Cl4          4.9340    -4.9340     2.9430 cl         1 I29      -0.028400
     21 C45          2.6530    -3.5520     2.4770 ca         1 I29      -0.098000
     22 C46          1.9370    -2.4160     2.1500 ca         1 I29      -0.084000
     23 C10         -0.7890     0.0050    -1.0930 c          1 I29       0.615100
     24 O10         -1.9880    -0.1620    -0.9770 o          1 I29      -0.687100
     25 N10         -0.2500     0.1960    -2.3130 n          1 I29      -0.140800
     26 C14          1.2070     0.2890    -2.4890 c3         1 I29      -0.040000
     27 C13          1.6280    -0.6860    -3.5950 c3         1 I29       0.122800
     28 N12          0.8380    -0.4180    -4.8040 n3         1 I29      -0.536600
     29 C12         -0.5930    -0.6580    -4.5700 c3         1 I29       0.122800
     30 C11         -1.1030     0.3110    -3.5050 c3         1 I29      -0.040000
     31 C16          0.6550    -0.7330    -7.2250 c3         1 I29      -0.005400
     32 C17          1.1650    -1.5600    -8.4070 c3         1 I29      -0.013600
     33 S17          0.3670    -0.9900    -9.9330 s6         1 I29       0.794000
     34 C19          1.1060    -2.0890   -11.1750 c3         1 I29       0.014700
     35 O17         -1.0230    -1.2720    -9.8500 o          1 I29      -0.584800
     36 O18          0.7920     0.3400   -10.1970 o          1 I29      -0.584800
     37 C15          1.3270    -1.2130    -5.9380 c3         1 I29       0.154800
     38 H1           1.2110     1.7610    -1.2040 hc         1 I29       0.051033
     39 H2           2.4280     1.9250     0.0690 hc         1 I29       0.051033
     40 H3           2.7900     0.9840    -1.3850 hc         1 I29       0.051033
     41 H4           3.5010     1.3180     1.2540 hc         1 I29       0.022367
     42 H5           2.8980     1.2110     2.9140 hc         1 I29       0.022367
     43 H6           1.9960     2.1320     1.7030 hc         1 I29       0.022367
     44 H10         -2.3720     0.8670     1.2440 hc         1 I29       0.030367
     45 H11         -1.9810     0.0360     2.7570 hc         1 I29       0.030367
     46 H12         -2.3580    -0.9010     1.3040 hc         1 I29       0.030367
     47 H13          4.0320    -0.5500    -0.6720 ha         1 I29       0.126500
     48 H14          4.9050    -2.5780    -1.7690 ha         1 I29       0.120500
     49 H15          0.9570    -4.2050    -1.8970 ha         1 I29       0.120500
     50 H16          0.0860    -2.1780    -0.7970 ha         1 I29       0.126500
     51 H17          4.5030    -0.2700     1.6910 ha         1 I29       0.117000
     52 H18          5.7830    -2.2940     2.2820 ha         1 I29       0.115000
     53 H19          2.1320    -4.4750     2.6990 ha         1 I29       0.115000
     54 H20          0.8550    -2.4500     2.1120 ha         1 I29       0.117000
     55 H21          1.7020     0.0220    -1.5630 h1         1 I29       0.075200
     56 H22          1.4750     1.2990    -2.7740 h1         1 I29       0.075200
     57 H23          1.4490    -1.7030    -3.2660 h1         1 I29       0.024450
     58 H24          2.6800    -0.5500    -3.8140 h1         1 I29       0.024450
     59 H26         -1.1390    -0.5000    -5.4920 h1         1 I29       0.024450
     60 H27         -0.7360    -1.6760    -4.2290 h1         1 I29       0.024450
     61 H28         -1.0580     1.3240    -3.8860 h1         1 I29       0.075200
     62 H29         -2.1250     0.0590    -3.2460 h1         1 I29       0.075200
     63 H30          0.8910     0.3120    -7.3880 hc         1 I29       0.041200
     64 H31         -0.4180    -0.8510    -7.1380 hc         1 I29       0.041200
     65 H32          2.2380    -1.4420    -8.4950 h1         1 I29       0.061700
     66 H33          0.9290    -2.6050    -8.2450 h1         1 I29       0.061700
     67 H34          0.7100    -1.8460   -12.1530 h1         1 I29       0.059700
     68 H35          2.1810    -1.9590   -11.1780 h1         1 I29       0.059700
     69 H36          0.8670    -3.1180   -10.9340 h1         1 I29       0.059700
     70 H37          1.0910    -2.2580    -5.7760 h1         1 I29       0.009200
     71 H38          2.4010    -1.0950    -6.0260 h1         1 I29       0.009200
@<TRIPOS>BOND
     1     1     2 1   
     2     1     9 1   
     3     1    23 1   
     4     2     3 1   
     5     2     4 1   
     6     2     5 1   
     7     3    38 1   
     8     3    39 1   
     9     3    40 1   
    10     4    11 ar  
    11     4    16 ar  
    12     5     6 1   
    13     5     7 1   
    14     5     8 1   
    15     6    41 1   
    16     6    42 1   
    17     6    43 1   
    18     7    17 ar  
    19     7    22 ar  
    20     8     9 2   
    21     9    10 1   
    22    10    44 1   
    23    10    45 1   
    24    10    46 1   
    25    11    12 ar  
    26    11    47 1   
    27    12    13 ar  
    28    12    48 1   
    29    13    14 1   
    30    13    15 ar  
    31    15    16 ar  
    32    15    49 1   
    33    16    50 1   
    34    17    18 ar  
    35    17    51 1   
    36    18    19 ar  
    37    18    52 1   
    38    19    20 1   
    39    19    21 ar  
    40    21    22 ar  
    41    21    53 1   
    42    22    54 1   
    43    23    24 2   
    44    23    25 1   
    45    25    26 1   
    46    25    30 1   
    47    26    27 1   
    48    26    55 1   
    49    26    56 1   
    50    27    28 1   
    51    27    57 1   
    52    27    58 1   
    53    28    29 1   
    54    28    37 1   
    55    29    30 1   
    56    29    59 1   
    57    29    60 1   
    58    30    61 1   
    59    30    62 1   
    60    31    32 1   
    61    31    37 1   
    62    31    63 1   
    63    31    64 1   
    64    32    33 1   
    65    32    65 1   
    66    32    66 1   
    67    33    34 1   
    68    33    35 2   
    69    33    36 2   
    70    34    67 1   
    71    34    68 1   
    72    34    69 1   
    73    37    70 1   
    74    37    71 1   
@<TRIPOS>SUBSTRUCTURE
     1 I29         1 TEMP              0 ****  ****    0 ROOT
