@<TRIPOS>MOLECULE
molecule
   71    74     1     0     0
SMALL
bcc


@<TRIPOS>ATOM
      1 N1           0.0000     0.0000     0.0000 n          1 I29      -0.433300
      2 C5           1.4730     0.0000     0.0000 c3         1 I29       0.116700
      3 C57          2.0150     1.2600    -0.6800 c3         1 I29      -0.130100
      4 C51          2.0060    -1.2400    -0.6710 ca         1 I29      -0.090300
      5 C4           1.8220     0.0000     1.5020 c3         1 I29       0.174500
      6 C47          2.6120     1.2570     1.8700 c3         1 I29      -0.075100
      7 C41          2.6030    -1.2380     1.8630 ca         1 I29      -0.067300
      8 N3           0.5130    -0.0000     2.1690 n2         1 I29      -0.635900
      9 C2          -0.4280    -0.0000     1.3000 c2         1 I29       0.486900
     10 C21         -1.8870     0.0010     1.6780 c3         1 I29      -0.108400
     11 C56          3.3570    -1.3530    -0.9420 ca         1 I29      -0.115500
     12 C55          3.8460    -2.4900    -1.5570 ca         1 I29      -0.116000
     13 C54          2.9840    -3.5150    -1.9020 ca         1 I29       0.026400
     14 Cl5          3.5970    -4.9440    -2.6730 cl         1 I29      -0.103400
     15 C53          1.6320    -3.4020    -1.6300 ca         1 I29      -0.116000
     16 C52          1.1450    -2.2660    -1.0100 ca         1 I29      -0.115500
     17 C42          3.9830    -1.1940     1.9120 ca         1 I29      -0.104500
     18 C43          4.7000    -2.3290     2.2430 ca         1 I29      -0.122000
     19 C44          4.0350    -3.5080     2.5250 ca         1 I29       0.033400
     20 Cl4          4.9340    -4.9340     2.9430 cl         1 I29      -0.110400
     21 C45          2.6530    -3.5520     2.4770 ca         1 I29      -0.122000
     22 C46          1.9370    -2.4160     2.1500 ca         1 I29      -0.104500
     23 C10         -0.7890     0.0050    -1.0930 c          1 I29       0.801100
     24 O10         -1.9880    -0.1620    -0.9770 o          1 I29      -0.643100
     25 N10         -0.2500     0.1960    -2.3130 n          1 I29      -0.492800
     26 C14          1.2070     0.2890    -2.4890 c3         1 I29       0.073000
     27 C13          1.6280    -0.6860    -3.5950 c3         1 I29       0.139300
     28 N12          0.8380    -0.4180    -4.8040 n3         1 I29      -0.730600
     29 C12         -0.5930    -0.6580    -4.5700 c3         1 I29       0.139300
     30 C11         -1.1030     0.3110    -3.5050 c3         1 I29       0.073000
     31 C16          0.6550    -0.7330    -7.2250 c3         1 I29      -0.060400
     32 C17          1.1650    -1.5600    -8.4070 c3         1 I29      -0.209600
     33 S17          0.3670    -0.9900    -9.9330 s6         1 I29       1.100000
     34 C19          1.1060    -2.0890   -11.1750 c3         1 I29      -0.227300
     35 O17         -1.0230    -1.2720    -9.8500 o          1 I29      -0.611800
     36 O18          0.7920     0.3400   -10.1970 o          1 I29      -0.611800
     37 C15          1.3270    -1.2130    -5.9380 c3         1 I29       0.171800
     38 H1           1.2110     1.7610    -1.2040 hc         1 I29       0.062700
     39 H2           2.4280     1.9250     0.0690 hc         1 I29       0.062700
     40 H3           2.7900     0.9840    -1.3850 hc         1 I29       0.062700
     41 H4           3.5010     1.3180     1.2540 hc         1 I29       0.049367
     42 H5           2.8980     1.2110     2.9140 hc         1 I29       0.049367
     43 H6           1.9960     2.1320     1.7030 hc         1 I29       0.049367
     44 H10         -2.3720     0.8670     1.2440 hc         1 I29       0.069367
     45 H11         -1.9810     0.0360     2.7570 hc         1 I29       0.069367
     46 H12         -2.3580    -0.9010     1.3040 hc         1 I29       0.069367
     47 H13          4.0320    -0.5500    -0.6720 ha         1 I29       0.148500
     48 H14          4.9050    -2.5780    -1.7690 ha         1 I29       0.149500
     49 H15          0.9570    -4.2050    -1.8970 ha         1 I29       0.149500
     50 H16          0.0860    -2.1780    -0.7970 ha         1 I29       0.148500
     51 H17          4.5030    -0.2700     1.6910 ha         1 I29       0.141500
     52 H18          5.7830    -2.2940     2.2820 ha         1 I29       0.144500
     53 H19          2.1320    -4.4750     2.6990 ha         1 I29       0.144500
     54 H20          0.8550    -2.4500     2.1120 ha         1 I29       0.141500
     55 H21          1.7020     0.0220    -1.5630 h1         1 I29       0.084200
     56 H22          1.4750     1.2990    -2.7740 h1         1 I29       0.084200
     57 H23          1.4490    -1.7030    -3.2660 h1         1 I29       0.046450
     58 H24          2.6800    -0.5500    -3.8140 h1         1 I29       0.046450
     59 H26         -1.1390    -0.5000    -5.4920 h1         1 I29       0.046450
     60 H27         -0.7360    -1.6760    -4.2290 h1         1 I29       0.046450
     61 H28         -1.0580     1.3240    -3.8860 h1         1 I29       0.084200
     62 H29         -2.1250     0.0590    -3.2460 h1         1 I29       0.084200
     63 H30          0.8910     0.3120    -7.3880 hc         1 I29       0.066700
     64 H31         -0.4180    -0.8510    -7.1380 hc         1 I29       0.066700
     65 H32          2.2380    -1.4420    -8.4950 h1         1 I29       0.094200
     66 H33          0.9290    -2.6050    -8.2450 h1         1 I29       0.094200
     67 H34          0.7100    -1.8460   -12.1530 h1         1 I29       0.096700
     68 H35          2.1810    -1.9590   -11.1780 h1         1 I29       0.096700
     69 H36          0.8670    -3.1180   -10.9340 h1         1 I29       0.096700
     70 H37          1.0910    -2.2580    -5.7760 h1         1 I29       0.037200
     71 H38          2.4010    -1.0950    -6.0260 h1         1 I29       0.037200
@<TRIPOS>BOND
     1    14    13 1
     2    15    13 ar
     3    15    16 ar
     4    13    12 ar
     5    16     4 ar
     6    20    19 1
     7    12    11 ar
     8    19    18 ar
     9    19    21 ar
    10     4    11 ar
    11     4     2 1
    12    18    17 ar
    13    21    22 ar
    14     3     2 1
    15    24    23 2
    16    17     7 ar
    17     2     5 1
    18     2     1 1
    19    22     7 ar
    20     7     5 1
    21    23     1 1
    22    23    25 1
    23     5     6 1
    24     5     8 1
    25     1     9 1
    26    26    25 1
    27    26    27 1
    28    25    30 1
    29     9     8 2
    30     9    10 1
    31    27    28 1
    32    30    29 1
    33    28    29 1
    34    28    37 1
    35    37    31 1
    36    31    32 1
    37    32    33 1
    38    36    33 2
    39    33    35 2
    40    33    34 1
    41     3    38 1
    42     3    39 1
    43     3    40 1
    44     6    41 1
    45     6    42 1
    46     6    43 1
    47    10    44 1
    48    10    45 1
    49    10    46 1
    50    11    47 1
    51    12    48 1
    52    15    49 1
    53    16    50 1
    54    17    51 1
    55    18    52 1
    56    21    53 1
    57    22    54 1
    58    26    55 1
    59    26    56 1
    60    27    57 1
    61    27    58 1
    62    29    59 1
    63    29    60 1
    64    30    61 1
    65    30    62 1
    66    31    63 1
    67    31    64 1
    68    32    65 1
    69    32    66 1
    70    34    67 1
    71    34    68 1
    72    34    69 1
    73    37    70 1
    74    37    71 1
@<TRIPOS>SUBSTRUCTURE
     1 I29         1 TEMP              0 ****  ****    0 ROOT
