@<TRIPOS>MOLECULE
molecule
   59    62     1     0     0
SMALL
bcc


@<TRIPOS>ATOM
      1 O8           0.0000     0.0000     0.0000 o          1 I2C      -0.539100
      2 C8           1.2070     0.0000     0.0000 c          1 I2C       0.581900
      3 N1           4.1470    -1.0090     0.8730 nb         1 I2C      -0.795000
      4 C2           5.0230    -2.0000     0.8750 ca         1 I2C       0.643600
      5 O2           6.2740    -1.7930     0.3930 oh         1 I2C      -0.612300
      6 C3           4.6750    -3.2510     1.3670 ca         1 I2C      -0.213600
      7 C3M          5.6770    -4.3760     1.3690 c3         1 I2C      -0.023800
      8 C7           1.9620     0.0000     1.3040 c3         1 I2C      -0.240700
      9 C6           2.9190    -1.1640     1.3320 ca         1 I2C       0.444600
     10 C5           2.4990    -2.3760     1.8360 ca         1 I2C      -0.217600
     11 C5M          1.0950    -2.5410     2.3560 c3         1 I2C      -0.032800
     12 C4           3.3910    -3.4490     1.8580 ca         1 I2C       0.233100
     13 O3P          3.0110    -4.6580     2.3460 os         1 I2C      -0.459500
     14 P1           3.3990    -4.8900     3.8910 p5         1 I2C       1.316800
     15 O2P          2.5750    -3.8590     4.8130 o          1 I2C      -0.794500
     16 O1P          4.8510    -4.6640     4.0750 o          1 I2C      -0.794500
     17 O5'          3.0340    -6.3990     4.3150 os         1 I2C      -0.589200
     18 C5'          3.3540    -6.9480     5.5960 c3         1 I2C       0.233400
     19 C4'          2.8670    -8.3970     5.6660 c3         1 I2C       0.114100
     20 O4'          3.6160    -9.2090     4.7460 os         1 I2C      -0.382600
     21 C3'          3.1110    -8.9630     7.0780 c3         1 I2C       0.093100
     22 O3'          1.8760    -9.3620     7.6770 oh         1 I2C      -0.581800
     23 C2'          4.0200   -10.1940     6.8430 c3         1 I2C       0.086100
     24 O2'          3.6260   -11.2860     7.6760 oh         1 I2C      -0.586800
     25 C1'          3.7540   -10.5130     5.3490 c3         1 I2C       0.233800
     26 N9A          4.8870   -11.2350     4.7660 na         1 I2C      -0.147900
     27 C4A          5.0550   -12.5920     4.7400 cc         1 I2C       0.014800
     28 N3A          4.3360   -13.6300     5.1830 nc         1 I2C      -0.518100
     29 C2A          4.7520   -14.8660     5.0160 cd         1 I2C       0.415800
     30 N2A          3.9810   -15.8980     5.4870 nz         1 I2C      -0.719600
     31 N1A          5.9280   -15.1520     4.3870 ns         1 I2C      -0.471400
     32 C8A          5.9650   -10.6750     4.1430 cc         1 I2C       0.527400
     33 N7A          6.7780   -11.6100     3.7470 nd         1 I2C      -0.626000
     34 C5A          6.2710   -12.8200     4.0860 cd         1 I2C       0.309800
     35 C6A          6.7070   -14.1550     3.9140 c          1 I2C       0.625000
     36 O6A          7.7600   -14.4000     3.3490 o          1 I2C      -0.541500
     37 H8           1.7480     0.0340    -0.9380 h4         1 I2C      -0.004800
     38 HO2          6.2750    -1.0270    -0.1570 ho         1 I2C       0.424000
     39 H3M          6.2350    -4.3650     0.4400 hc         1 I2C       0.048033
     40 H3MA         6.3590    -4.2510     2.2010 hc         1 I2C       0.048033
     41 H3MB         5.1580    -5.3220     1.4660 hc         1 I2C       0.048033
     42 H7           1.2610    -0.0880     2.1260 hc         1 I2C       0.082200
     43 H7A          2.5160     0.9260     1.4000 hc         1 I2C       0.082200
     44 H5M          0.9170    -3.5840     2.5930 hc         1 I2C       0.049700
     45 H5MA         0.3890    -2.2180     1.6010 hc         1 I2C       0.049700
     46 H5MB         0.9680    -1.9420     3.2490 hc         1 I2C       0.049700
     47 H5'          4.4270    -6.9200     5.7430 h1         1 I2C       0.047700
     48 H5'A         2.8690    -6.3660     6.3700 h1         1 I2C       0.047700
     49 H4'          1.8120    -8.4490     5.4270 h1         1 I2C       0.095700
     50 H3'          3.6190    -8.2320     7.6950 h1         1 I2C       0.068700
     51 HO3'         1.7430    -8.8760     8.4740 ho         1 I2C       0.415000
     52 H2'          5.0610    -9.9360     6.9990 h1         1 I2C       0.063700
     53 HO2'         4.1960   -11.3300     8.4270 ho         1 I2C       0.408000
     54 H1'          2.8370   -11.0790     5.2410 h2         1 I2C       0.106700
     55 HN2A         4.4630   -16.3620     6.2310 hn         1 I2C       0.472467
     56 HN2B         3.1120   -15.5370     5.8270 hn         1 I2C       0.472467
     57 HN1A         6.2140   -16.1040     4.2770 hn         1 I2C       0.341500
     58 H8A          6.1190    -9.6130     3.9990 h5         1 I2C       0.128100
     59 H2A3         3.8050   -16.5480     4.7460 hn         1 I2C       0.472467
@<TRIPOS>BOND
     1     1     2 2
     2     2     8 1
     3     3     4 ar
     4     3     9 ar
     5     4     5 1
     6     4     6 ar
     7     6     7 1
     8     6    12 ar
     9     8     9 1
    10     9    10 ar
    11    10    11 1
    12    10    12 ar
    13    12    13 1
    14    13    14 1
    15    14    15 1
    16    14    16 1
    17    14    17 1
    18    17    18 1
    19    18    19 1
    20    19    20 1
    21    19    21 1
    22    20    25 1
    23    21    22 1
    24    21    23 1
    25    23    24 1
    26    23    25 1
    27    25    26 1
    28    26    27 1
    29    26    32 1
    30    27    28 1
    31    27    34 2
    32    28    29 2
    33    29    30 1
    34    29    31 1
    35    31    35 1
    36    32    33 2
    37    33    34 1
    38    34    35 1
    39    35    36 2
    40     2    37 1
    41     5    38 1
    42     7    39 1
    43     7    40 1
    44     7    41 1
    45     8    42 1
    46     8    43 1
    47    11    44 1
    48    11    45 1
    49    11    46 1
    50    18    47 1
    51    18    48 1
    52    19    49 1
    53    21    50 1
    54    22    51 1
    55    23    52 1
    56    24    53 1
    57    25    54 1
    58    30    55 1
    59    30    56 1
    60    31    57 1
    61    32    58 1
    62    59    30 1
@<TRIPOS>SUBSTRUCTURE
     1 I2C         1 TEMP              0 ****  ****    0 ROOT
