@<TRIPOS>MOLECULE
I2C
   59    62     1     0     0
SMALL
bcc


@<TRIPOS>ATOM
      1 O8           0.0000     0.0000     0.0000 o          1 I2C      -0.580100
      2 C8           1.2070     0.0000     0.0000 c          1 I2C       0.672900
      3 N1           4.1470    -1.0090     0.8730 nb         1 I2C      -0.705000
      4 C2           5.0230    -2.0000     0.8750 ca         1 I2C       0.615600
      5 O2           6.2740    -1.7930     0.3930 oh         1 I2C      -0.603300
      6 C3           4.6750    -3.2510     1.3670 ca         1 I2C      -0.262600
      7 C3M          5.6770    -4.3760     1.3690 c3         1 I2C       0.082200
      8 C7           1.9620     0.0000     1.3040 c3         1 I2C      -0.199700
      9 C6           2.9190    -1.1640     1.3320 ca         1 I2C       0.399600
     10 C5           2.4990    -2.3760     1.8360 ca         1 I2C      -0.255600
     11 C5M          1.0950    -2.5410     2.3560 c3         1 I2C       0.070200
     12 C4           3.3910    -3.4490     1.8580 ca         1 I2C       0.305100
     13 O3P          3.0110    -4.6580     2.3460 os         1 I2C      -0.370500
     14 P1           3.3990    -4.8900     3.8910 p5         1 I2C       0.917800
     15 O2P          2.5750    -3.8590     4.8130 o          1 I2C      -0.643000
     16 O1P          4.8510    -4.6640     4.0750 o          1 I2C      -0.643000
     17 O5'          3.0340    -6.3990     4.3150 os         1 I2C      -0.500200
     18 C5'          3.3540    -6.9480     5.5960 c3         1 I2C       0.313400
     19 C4'          2.8670    -8.3970     5.6660 c3         1 I2C       0.139100
     20 O4'          3.6160    -9.2090     4.7460 os         1 I2C      -0.366600
     21 C3'          3.1110    -8.9630     7.0780 c3         1 I2C       0.135100
     22 O3'          1.8760    -9.3620     7.6770 oh         1 I2C      -0.564800
     23 C2'          4.0200   -10.1940     6.8430 c3         1 I2C       0.127100
     24 O2'          3.6260   -11.2860     7.6760 oh         1 I2C      -0.569800
     25 C1'          3.7540   -10.5130     5.3490 c3         1 I2C       0.110800
     26 N9A          4.8870   -11.2350     4.7660 na         1 I2C       0.354100
     27 C4A          5.0550   -12.5920     4.7400 cc         1 I2C      -0.248200
     28 N3A          4.3360   -13.6300     5.1830 nc         1 I2C      -0.298100
     29 C2A          4.7520   -14.8660     5.0160 cd         1 I2C      -0.066200
     30 N2A          3.9810   -15.8980     5.4870 nz         1 I2C       0.235400
     31 N1A          5.9280   -15.1520     4.3870 ns         1 I2C      -0.011400
     32 C8A          5.9650   -10.6750     4.1430 cc         1 I2C       0.343400
     33 N7A          6.7780   -11.6100     3.7470 nd         1 I2C      -0.517000
     34 C5A          6.2710   -12.8200     4.0860 cd         1 I2C       0.277800
     35 C6A          6.7070   -14.1550     3.9140 c          1 I2C       0.526000
     36 O6A          7.7600   -14.4000     3.3490 o          1 I2C      -0.584500
     37 H8           1.7480     0.0340    -0.9380 h4         1 I2C      -0.046800
     38 HO2          6.2750    -1.0270    -0.1570 ho         1 I2C       0.398000
     39 H3M          6.2350    -4.3650     0.4400 hc         1 I2C       0.011033
     40 H3MA         6.3590    -4.2510     2.2010 hc         1 I2C       0.011033
     41 H3MB         5.1580    -5.3220     1.4660 hc         1 I2C       0.011033
     42 H7           1.2610    -0.0880     2.1260 hc         1 I2C       0.046700
     43 H7A          2.5160     0.9260     1.4000 hc         1 I2C       0.046700
     44 H5M          0.9170    -3.5840     2.5930 hc         1 I2C       0.014367
     45 H5MA         0.3890    -2.2180     1.6010 hc         1 I2C       0.014367
     46 H5MB         0.9680    -1.9420     3.2490 hc         1 I2C       0.014367
     47 H5'          4.4270    -6.9200     5.7430 h1         1 I2C      -0.003300
     48 H5'A         2.8690    -6.3660     6.3700 h1         1 I2C      -0.003300
     49 H4'          1.8120    -8.4490     5.4270 h1         1 I2C       0.054700
     50 H3'          3.6190    -8.2320     7.6950 h1         1 I2C       0.031700
     51 HO3'         1.7430    -8.8760     8.4740 ho         1 I2C       0.399000
     52 H2'          5.0610    -9.9360     6.9990 h1         1 I2C       0.025700
     53 HO2'         4.1960   -11.3300     8.4270 ho         1 I2C       0.394000
     54 H1'          2.8370   -11.0790     5.2410 h2         1 I2C       0.064700
     55 HN2A         4.4630   -16.3620     6.2310 hn         1 I2C       0.209133
     56 HN2B         3.1120   -15.5370     5.8270 hn         1 I2C       0.209133
     57 HN1A         6.2140   -16.1040     4.2770 hn         1 I2C       0.181500
     58 H8A          6.1190    -9.6130     3.9990 h5         1 I2C       0.072100
     59 H2A3         3.8050   -16.5480     4.7460 hn         1 I2C       0.209133
@<TRIPOS>BOND
     1     1     2 2   
     2     2     8 1   
     3     2    37 1   
     4     3     4 ar  
     5     3     9 ar  
     6     4     5 1   
     7     4     6 ar  
     8     5    38 1   
     9     6     7 1   
    10     6    12 ar  
    11     7    39 1   
    12     7    40 1   
    13     7    41 1   
    14     8     9 1   
    15     8    42 1   
    16     8    43 1   
    17     9    10 ar  
    18    10    11 1   
    19    10    12 ar  
    20    11    44 1   
    21    11    45 1   
    22    11    46 1   
    23    12    13 1   
    24    13    14 1   
    25    14    15 1   
    26    14    16 1   
    27    14    17 1   
    28    17    18 1   
    29    18    19 1   
    30    18    47 1   
    31    18    48 1   
    32    19    20 1   
    33    19    21 1   
    34    19    49 1   
    35    20    25 1   
    36    21    22 1   
    37    21    23 1   
    38    21    50 1   
    39    22    51 1   
    40    23    24 1   
    41    23    25 1   
    42    23    52 1   
    43    24    53 1   
    44    25    26 1   
    45    25    54 1   
    46    26    27 1   
    47    26    32 1   
    48    27    28 1   
    49    27    34 2   
    50    28    29 2   
    51    29    30 1   
    52    29    31 1   
    53    30    55 1   
    54    30    56 1   
    55    30    59 1   
    56    31    35 1   
    57    31    57 1   
    58    32    33 2   
    59    32    58 1   
    60    33    34 1   
    61    34    35 1   
    62    35    36 2   
@<TRIPOS>SUBSTRUCTURE
     1 I2C         1 TEMP              0 ****  ****    0 ROOT
