@<TRIPOS>MOLECULE
I2E
   23    24     1     0     0
SMALL
bcc


@<TRIPOS>ATOM
      1 C4          0.0390   -0.2190    0.0470 ca        1 I2E      0.020100
      2 C5          1.4160   -0.1310    0.0940 ca        1 I2E     -0.111000
      3 C6          1.9870   -0.0060    1.3700 ca        1 I2E     -0.139000
      4 C3         -0.7490   -0.1810    1.2220 ca        1 I2E      0.045100
      5 C2         -0.1920   -0.0570    2.4780 ca        1 I2E     -0.119000
      6 C1          1.2170    0.0320    2.5390 ca        1 I2E     -0.036300
      7 C7          1.8900    0.1560    3.8620 c3        1 I2E     -0.041100
      8 C8          2.5350    1.5080    4.0680 c3        1 I2E     -0.193400
      9 C9          3.5300    1.4700    5.2450 c         1 I2E      0.908600
     10 O1          3.5720    2.4770    6.0070 o         1 I2E     -0.846800
     11 C20        -2.1470   -0.3910   -0.5650 c3        1 I2E      0.323200
     12 O2          4.2640    0.4480    5.3770 o         1 I2E     -0.846800
     13 O4         -0.7950   -0.3510   -1.0670 os        1 I2E     -0.347900
     14 O3         -2.0980   -0.2890    0.8730 os        1 I2E     -0.344900
     15 H5          2.0320   -0.1570   -0.8120 ha        1 I2E      0.140000
     16 H6          3.0830    0.0710    1.4600 ha        1 I2E      0.152000
     17 H2         -0.8040   -0.0230    3.3870 ha        1 I2E      0.152000
     18 H71C        2.6960   -0.6280    3.9480 hc        1 I2E      0.062700
     19 H72C        1.1550   -0.0330    4.6880 hc        1 I2E      0.062700
     20 H81C        1.7590    2.2890    4.2630 hc        1 I2E      0.026200
     21 H82C        3.1050    1.8080    3.1530 hc        1 I2E      0.026200
     22 H201       -2.7050    0.4900   -0.9670 h2        1 I2E      0.055200
     23 H202       -2.6010   -1.3750   -0.8380 h2        1 I2E      0.055200
@<TRIPOS>BOND
     1    1    2 ar  
     2    1    4 ar  
     3    1   13 1   
     4    2    3 ar  
     5    2   15 1   
     6    3    6 ar  
     7    3   16 1   
     8    4    5 ar  
     9    4   14 1   
    10    5    6 ar  
    11    5   17 1   
    12    6    7 1   
    13    7    8 1   
    14    7   18 1   
    15    7   19 1   
    16    8    9 1   
    17    8   20 1   
    18    8   21 1   
    19    9   10 1   
    20    9   12 1   
    21   11   13 1   
    22   11   14 1   
    23   11   22 1   
    24   11   23 1   
@<TRIPOS>SUBSTRUCTURE
     1 I2E         1 TEMP              0 ****  ****    0 ROOT
