@<TRIPOS>MOLECULE
molecule
   23    24     1     0     0
SMALL
bcc


@<TRIPOS>ATOM
      1 C4           0.0000     0.0000     0.0000 ca         1 I2E       0.014100
      2 C5           1.3850     0.0000     0.0000 ca         1 I2E      -0.115000
      3 C6           2.0770     0.0000     1.1960 ca         1 I2E      -0.132000
      4 C3          -0.6930    -0.0000     1.2080 ca         1 I2E       0.041100
      5 C2           0.0080    -0.0000     2.4040 ca         1 I2E      -0.115000
      6 C1           1.3890    -0.0000     2.3960 ca         1 I2E      -0.046300
      7 C7           2.1490    -0.0010     3.6980 c3         1 I2E      -0.025100
      8 C8           2.4060     1.4410     4.1380 c3         1 I2E      -0.179400
      9 C9           3.1660     1.4410     5.4400 c          1 I2E       0.890600
     10 O1           3.5040     2.6040     6.0200 o          1 I2E      -0.852800
     11 C20         -2.1520    -0.4160    -0.4280 c3         1 I2E       0.332200
     12 O2           3.4690     0.3950     5.9620 o          1 I2E      -0.852800
     13 O4          -0.9060    -0.0060    -1.0220 os         1 I2E      -0.338900
     14 O3          -2.0320    -0.0010     0.9440 os         1 I2E      -0.331900
     15 H5           1.9260     0.0000    -0.9380 ha         1 I2E       0.128000
     16 H6           3.1600    -0.0000     1.1940 ha         1 I2E       0.143000
     17 H2          -0.5280    -0.0000     3.3450 ha         1 I2E       0.147000
     18 H71C         1.5670    -0.5120     4.4560 hc         1 I2E       0.057700
     19 H72C         3.0950    -0.5120     3.5640 hc         1 I2E       0.057700
     20 H81C         2.9880     1.9520     3.3800 hc         1 I2E       0.033700
     21 H82C         1.4600     1.9520     4.2720 hc         1 I2E       0.033700
     22 H201        -2.9830     0.0890    -0.9060 h2         1 I2E       0.055200
     23 H202        -2.2660    -1.4920    -0.4900 h2         1 I2E       0.055200
@<TRIPOS>BOND
     1     1     2 ar
     2     1     4 ar
     3     1    13 1
     4     2     3 ar
     5     3     6 ar
     6     4     5 ar
     7     4    14 1
     8     5     6 ar
     9     6     7 1
    10     7     8 1
    11     8     9 1
    12     9    10 1
    13     9    12 1
    14    11    13 1
    15    11    14 1
    16     2    15 1
    17     3    16 1
    18     5    17 1
    19     7    18 1
    20     7    19 1
    21     8    20 1
    22     8    21 1
    23    11    22 1
    24    11    23 1
@<TRIPOS>SUBSTRUCTURE
     1 I2E         1 TEMP              0 ****  ****    0 ROOT
