@<TRIPOS>MOLECULE
I2H
   48    51     1     0     0
SMALL
bcc


@<TRIPOS>ATOM
      1 N7           0.0000     0.0000     0.0000 nv         1 I2H      -0.542500
      2 C6           1.3850     0.0000     0.0000 ca         1 I2H       0.588200
      3 N5           2.0590     0.0000     1.1450 nb         1 I2H      -0.763000
      4 C3           3.3830    -0.0010     1.1480 ca         1 I2H       0.745900
      5 N4           4.0560    -0.0020     2.3580 nv         1 I2H      -0.501500
      6 N2           4.0820    -0.0030     0.0220 nb         1 I2H      -0.744000
      7 C1           3.4740    -0.0030    -1.1550 ca         1 I2H       0.530200
      8 C8           2.0930    -0.0070    -1.2040 ca         1 I2H      -0.471900
      9 C9           1.3690    -0.0140    -2.5250 c3         1 I2H       0.118200
     10 C10          1.0200     1.4000    -2.9130 ca         1 I2H       0.002700
     11 C21         -0.2240     1.9160    -2.6080 ca         1 I2H      -0.244000
     12 C18         -0.5490     3.2180    -2.9640 ca         1 I2H       0.166100
     13 O19         -1.7770     3.7160    -2.6590 os         1 I2H      -0.289900
     14 C20         -2.6790     2.8450    -1.9740 c3         1 I2H       0.241700
     15 C11          1.9510     2.1930    -3.5750 ca         1 I2H      -0.159800
     16 C12          1.6270     3.5090    -3.9350 ca         1 I2H       0.181100
     17 O13          2.5570     4.2600    -4.5810 os         1 I2H      -0.294900
     18 C15          0.3760     4.0160    -3.6310 ca         1 I2H       0.035100
     19 O16          0.0520     5.2920    -3.9780 os         1 I2H      -0.310900
     20 C17         -0.5420     5.4840    -5.2630 c3         1 I2H       0.250700
     21 C27          3.2970     1.6820    -3.9150 ce         1 I2H      -0.053200
     22 C28          4.2390     2.5660    -4.2380 c2         1 I2H      -0.197200
     23 C14          3.9260     4.0380    -4.2360 c3         1 I2H       0.279300
     24 C24          4.1940     4.6090    -2.8430 cx         1 I2H      -0.164700
     25 C26          3.9330     6.1020    -2.6290 cx         1 I2H      -0.085400
     26 C25          2.9870     5.0640    -2.0210 cx         1 I2H      -0.085400
     27 H1          -0.4990    -0.3790    -0.7800 hn         1 I2H       0.275300
     28 H2          -0.4990     0.3090     0.8100 hn         1 I2H       0.275300
     29 H3           5.0560    -0.0440     2.3750 hn         1 I2H       0.273300
     30 H4           3.5420     0.0390     3.2160 hn         1 I2H       0.273300
     31 H5           4.0530    -0.0070    -2.0700 h4         1 I2H      -0.016900
     32 H6           2.0060    -0.4490    -3.2850 hc         1 I2H       0.018700
     33 H7           0.4610    -0.5990    -2.4370 hc         1 I2H       0.018700
     34 H8          -0.9520     1.3000    -2.0940 ha         1 I2H       0.124000
     35 H9          -2.2790     2.6100    -0.9950 h1         1 I2H      -0.002967
     36 H10         -2.8010     1.9320    -2.5430 h1         1 I2H      -0.002967
     37 H11         -3.6390     3.3340    -1.8630 h1         1 I2H      -0.002967
     38 H12          0.0340     6.2110    -5.8220 h1         1 I2H      -0.008633
     39 H13         -0.5550     4.5430    -5.7990 h1         1 I2H      -0.008633
     40 H14         -1.5570     5.8440    -5.1410 h1         1 I2H      -0.008633
     41 H15          3.4380     0.6320    -4.1390 ha         1 I2H       0.113000
     42 H17          5.2100     2.2210    -4.5740 ha         1 I2H       0.111000
     43 H19          4.5590     4.5360    -4.9600 h1         1 I2H       0.047700
     44 H20          5.0120     4.2040    -2.2610 hc         1 I2H       0.067700
     45 H21          3.5490     6.6380    -3.4890 hc         1 I2H       0.055200
     46 H22          4.5970     6.5970    -1.9300 hc         1 I2H       0.055200
     47 H23          2.0250     4.9660    -2.5090 hc         1 I2H       0.055200
     48 H24          3.0720     4.9240    -0.9500 hc         1 I2H       0.055200
@<TRIPOS>BOND
     1     1     2 1   
     2     1    27 1   
     3     1    28 1   
     4     2     3 ar  
     5     2     8 ar  
     6     3     4 ar  
     7     4     5 1   
     8     4     6 ar  
     9     5    29 1   
    10     5    30 1   
    11     6     7 ar  
    12     7     8 ar  
    13     7    31 1   
    14     8     9 1   
    15     9    10 1   
    16     9    32 1   
    17     9    33 1   
    18    10    11 ar  
    19    10    15 ar  
    20    11    12 ar  
    21    11    34 1   
    22    12    13 1   
    23    12    18 ar  
    24    13    14 1   
    25    14    35 1   
    26    14    36 1   
    27    14    37 1   
    28    15    16 ar  
    29    15    21 1   
    30    16    17 1   
    31    16    18 ar  
    32    17    23 1   
    33    18    19 1   
    34    19    20 1   
    35    20    38 1   
    36    20    39 1   
    37    20    40 1   
    38    21    22 2   
    39    21    41 1   
    40    22    23 1   
    41    22    42 1   
    42    23    24 1   
    43    23    43 1   
    44    24    25 1   
    45    24    26 1   
    46    24    44 1   
    47    25    26 1   
    48    25    45 1   
    49    25    46 1   
    50    26    47 1   
    51    26    48 1   
@<TRIPOS>SUBSTRUCTURE
     1 I2H         1 TEMP              0 ****  ****    0 ROOT
