@<TRIPOS>MOLECULE
I2I
    2     1     1     0     0
SMALL
bcc


@<TRIPOS>ATOM
      1 I1         -1.2690   -0.0050   -0.0010 i         1 I2I      0.000000
      2 I2          1.2690    0.0050    0.0010 i         1 I2I     -0.000000
@<TRIPOS>BOND
     1    1    2 1   
@<TRIPOS>SUBSTRUCTURE
     1 I2I         1 TEMP              0 ****  ****    0 ROOT
