@<TRIPOS>MOLECULE
molecule
    2     1     1     0     0
SMALL
bcc


@<TRIPOS>ATOM
      1 I1          -1.3300     0.0000    -0.0000 i          1 I2I       0.000000
      2 I2           1.3300     0.0000    -0.0000 i          1 I2I      -0.000000
@<TRIPOS>BOND
     1     1     2 1
@<TRIPOS>SUBSTRUCTURE
     1 I2I         1 TEMP              0 ****  ****    0 ROOT
