@<TRIPOS>MOLECULE
I2O
   51    55     1     0     0
SMALL
bcc


@<TRIPOS>ATOM
      1 CAA          0.0000     0.0000     0.0000 ca         1 I2O      -0.111000
      2 CAB          1.3810     0.0000     0.0000 ca         1 I2O      -0.051300
      3 CAC          2.0820     0.0000     1.2060 cp         1 I2O      -0.054000
      4 CAD          1.3870     0.0010     2.4110 ca         1 I2O      -0.017000
      5 CAE         -0.0070     0.0010     2.4060 ca         1 I2O      -0.165600
      6 CAF         -0.6970     0.0000     1.1920 ca         1 I2O      -0.080000
      7 CAG          2.1330    -0.0010    -1.3050 c3         1 I2O       0.048200
      8 CAH         -0.7530     0.0010     3.6820 c          1 I2O       0.597700
      9 NAI         -2.1010     0.0010     3.6750 ns         1 I2O      -0.143900
     10 CAJ         -2.8400     0.0010     4.9400 cx         1 I2O      -0.046300
     11 CAK         -4.2580     0.5740     4.9290 cx         1 I2O      -0.094900
     12 CAL         -4.0450    -0.9350     5.0540 cx         1 I2O      -0.094900
     13 OAM         -0.1510     0.0000     4.7380 o          1 I2O      -0.647100
     14 CAN          3.5660    -0.0010     1.2040 cp         1 I2O      -0.002000
     15 CAO          4.2600     0.9990     0.5300 ca         1 I2O      -0.118000
     16 CAP          5.6510     1.0000     0.5250 ca         1 I2O      -0.099400
     17 CAQ          6.3300    -0.0090     1.2020 ca         1 I2O      -0.134300
     18 CAR          5.6430    -0.9980     1.8710 ca         1 I2O      -0.040000
     19 CAS          4.2620    -0.9990     1.8810 ca         1 I2O      -0.113000
     20 NAT          6.5590     1.8800    -0.0690 ns         1 I2O      -0.013100
     21 CAU          7.8360     1.5260     0.1650 c          1 I2O       0.621500
     22 CAV          7.7940     0.2770     1.0040 c3         1 I2O      -0.095700
     23 OAW          8.8300     2.1030    -0.2240 o          1 I2O      -0.642500
     24 CAX          8.4970    -0.8880     0.3000 c3         1 I2O      -0.004400
     25 CAY          9.6280    -1.3480     1.2470 c3         1 I2O      -0.025400
     26 CAZ          9.1670    -0.8750     2.6490 c3         1 I2O      -0.025400
     27 CBA          8.5010     0.4930     2.3500 c3         1 I2O      -0.004400
     28 HAA         -0.5390    -0.0000    -0.9400 ha         1 I2O       0.110000
     29 HAD          1.9280     0.0010     3.3500 ha         1 I2O       0.135000
     30 HAF         -1.7800     0.0000     1.1860 ha         1 I2O       0.100000
     31 HAG          2.4550     1.0070    -1.5370 hc         1 I2O       0.014700
     32 HAGA         1.4850    -0.3630    -2.0950 hc         1 I2O       0.014700
     33 HAGB         2.9980    -0.6470    -1.2230 hc         1 I2O       0.014700
     34 HNAI        -2.5960     0.0380     2.8060 hn         1 I2O       0.174500
     35 HAJ         -2.2950     0.1540     5.8650 h1         1 I2O       0.098700
     36 HAK         -4.5650     1.0790     5.8370 hc         1 I2O       0.047950
     37 HAKA        -4.6160     0.9180     3.9670 hc         1 I2O       0.047950
     38 HAL         -4.2220    -1.3530     6.0370 hc         1 I2O       0.047950
     39 HALA        -4.2730    -1.5140     4.1660 hc         1 I2O       0.047950
     40 HAO          3.7160     1.8000     0.0440 ha         1 I2O       0.115000
     41 HAR          6.1880    -1.7730     2.3970 ha         1 I2O       0.110000
     42 HAS          3.7240    -1.8280     2.3250 ha         1 I2O       0.117000
     43 HNAT         6.2900     2.6800    -0.6060 hn         1 I2O       0.174500
     44 HAX          7.7980    -1.6990     0.1370 hc         1 I2O       0.027450
     45 HAXA         8.9150    -0.5540    -0.6420 hc         1 I2O       0.027450
     46 HAY          9.7240    -2.4270     1.2250 hc         1 I2O       0.017950
     47 HAYA        10.5630    -0.8720     0.9780 hc         1 I2O       0.017950
     48 HAZ          8.4450    -1.5670     3.0670 hc         1 I2O       0.017950
     49 HAZA        10.0160    -0.7510     3.3090 hc         1 I2O       0.017950
     50 HBA          9.2530     1.2680     2.2620 hc         1 I2O       0.027450
     51 HBAA         7.7810     0.7400     3.1210 hc         1 I2O       0.027450
@<TRIPOS>BOND
     1     1     2 ar  
     2     1     6 ar  
     3     1    28 1   
     4     2     3 ar  
     5     2     7 1   
     6     3     4 ar  
     7     3    14 1   
     8     4     5 ar  
     9     4    29 1   
    10     5     6 ar  
    11     5     8 1   
    12     6    30 1   
    13     7    31 1   
    14     7    32 1   
    15     7    33 1   
    16     8     9 1   
    17     8    13 2   
    18     9    10 1   
    19     9    34 1   
    20    10    11 1   
    21    10    12 1   
    22    10    35 1   
    23    11    12 1   
    24    11    36 1   
    25    11    37 1   
    26    12    38 1   
    27    12    39 1   
    28    14    15 ar  
    29    14    19 ar  
    30    15    16 ar  
    31    15    40 1   
    32    16    17 ar  
    33    16    20 1   
    34    17    18 ar  
    35    17    22 1   
    36    18    19 ar  
    37    18    41 1   
    38    19    42 1   
    39    20    21 1   
    40    20    43 1   
    41    21    22 1   
    42    21    23 2   
    43    22    24 1   
    44    22    27 1   
    45    24    25 1   
    46    24    44 1   
    47    24    45 1   
    48    25    26 1   
    49    25    46 1   
    50    25    47 1   
    51    26    27 1   
    52    26    48 1   
    53    26    49 1   
    54    27    50 1   
    55    27    51 1   
@<TRIPOS>SUBSTRUCTURE
     1 I2O         1 TEMP              0 ****  ****    0 ROOT
