@<TRIPOS>MOLECULE
molecule
   51    55     1     0     0
SMALL
bcc


@<TRIPOS>ATOM
      1 CAA          0.0000     0.0000     0.0000 ca         1 I2O      -0.139000
      2 CAB          1.3810     0.0000     0.0000 ca         1 I2O      -0.044300
      3 CAC          2.0820     0.0000     1.2060 cp         1 I2O      -0.056000
      4 CAD          1.3870     0.0010     2.4110 ca         1 I2O      -0.048000
      5 CAE         -0.0070     0.0010     2.4060 ca         1 I2O      -0.153600
      6 CAF         -0.6970     0.0000     1.1920 ca         1 I2O      -0.100000
      7 CAG          2.1330    -0.0010    -1.3050 c3         1 I2O      -0.053800
      8 CAH         -0.7530     0.0010     3.6820 c          1 I2O       0.679700
      9 NAI         -2.1010     0.0010     3.6750 ns         1 I2O      -0.551900
     10 CAJ         -2.8400     0.0010     4.9400 cx         1 I2O       0.060700
     11 CAK         -4.2580     0.5740     4.9290 cx         1 I2O      -0.157400
     12 CAL         -4.0450    -0.9350     5.0540 cx         1 I2O      -0.157400
     13 OAM         -0.1510     0.0000     4.7380 o          1 I2O      -0.606100
     14 CAN          3.5660    -0.0010     1.2040 cp         1 I2O      -0.007000
     15 CAO          4.2600     0.9990     0.5300 ca         1 I2O      -0.148000
     16 CAP          5.6510     1.0000     0.5250 ca         1 I2O       0.051600
     17 CAQ          6.3300    -0.0090     1.2020 ca         1 I2O      -0.127300
     18 CAR          5.6430    -0.9980     1.8710 ca         1 I2O      -0.076000
     19 CAS          4.2620    -0.9990     1.8810 ca         1 I2O      -0.139000
     20 NAT          6.5590     1.8800    -0.0690 ns         1 I2O      -0.463100
     21 CAU          7.8360     1.5260     0.1650 c          1 I2O       0.721500
     22 CAV          7.7940     0.2770     1.0040 c3         1 I2O      -0.105700
     23 OAW          8.8300     2.1030    -0.2240 o          1 I2O      -0.603500
     24 CAX          8.4970    -0.8880     0.3000 c3         1 I2O      -0.058400
     25 CAY          9.6280    -1.3480     1.2470 c3         1 I2O      -0.083400
     26 CAZ          9.1670    -0.8750     2.6490 c3         1 I2O      -0.083400
     27 CBA          8.5010     0.4930     2.3500 c3         1 I2O      -0.058400
     28 HAA         -0.5390    -0.0000    -0.9400 ha         1 I2O       0.136000
     29 HAD          1.9280     0.0010     3.3500 ha         1 I2O       0.164000
     30 HAF         -1.7800     0.0000     1.1860 ha         1 I2O       0.124000
     31 HAG          2.4550     1.0070    -1.5370 hc         1 I2O       0.049367
     32 HAGA         1.4850    -0.3630    -2.0950 hc         1 I2O       0.049367
     33 HAGB         2.9980    -0.6470    -1.2230 hc         1 I2O       0.049367
     34 HNAI        -2.5960     0.0380     2.8060 hn         1 I2O       0.317500
     35 HAJ         -2.2950     0.1540     5.8650 h1         1 I2O       0.125700
     36 HAK         -4.5650     1.0790     5.8370 hc         1 I2O       0.077450
     37 HAKA        -4.6160     0.9180     3.9670 hc         1 I2O       0.077450
     38 HAL         -4.2220    -1.3530     6.0370 hc         1 I2O       0.077450
     39 HALA        -4.2730    -1.5140     4.1660 hc         1 I2O       0.077450
     40 HAO          3.7160     1.8000     0.0440 ha         1 I2O       0.138000
     41 HAR          6.1880    -1.7730     2.3970 ha         1 I2O       0.139000
     42 HAS          3.7240    -1.8280     2.3250 ha         1 I2O       0.144000
     43 HNAT         6.2900     2.6800    -0.6060 hn         1 I2O       0.335500
     44 HAX          7.7980    -1.6990     0.1370 hc         1 I2O       0.057950
     45 HAXA         8.9150    -0.5540    -0.6420 hc         1 I2O       0.057950
     46 HAY          9.7240    -2.4270     1.2250 hc         1 I2O       0.048450
     47 HAYA        10.5630    -0.8720     0.9780 hc         1 I2O       0.048450
     48 HAZ          8.4450    -1.5670     3.0670 hc         1 I2O       0.048450
     49 HAZA        10.0160    -0.7510     3.3090 hc         1 I2O       0.048450
     50 HBA          9.2530     1.2680     2.2620 hc         1 I2O       0.057950
     51 HBAA         7.7810     0.7400     3.1210 hc         1 I2O       0.057950
@<TRIPOS>BOND
     1     1     2 ar
     2     1     6 ar
     3     2     3 ar
     4     2     7 1
     5     3     4 ar
     6     3    14 1
     7     4     5 ar
     8     5     6 ar
     9     5     8 1
    10     8     9 1
    11     8    13 2
    12     9    10 1
    13    10    11 1
    14    10    12 1
    15    11    12 1
    16    14    15 ar
    17    14    19 ar
    18    15    16 ar
    19    16    17 ar
    20    16    20 1
    21    17    18 ar
    22    17    22 1
    23    18    19 ar
    24    20    21 1
    25    21    22 1
    26    21    23 2
    27    22    24 1
    28    22    27 1
    29    24    25 1
    30    25    26 1
    31    26    27 1
    32     1    28 1
    33     4    29 1
    34     6    30 1
    35     7    31 1
    36     7    32 1
    37     7    33 1
    38     9    34 1
    39    10    35 1
    40    11    36 1
    41    11    37 1
    42    12    38 1
    43    12    39 1
    44    15    40 1
    45    18    41 1
    46    19    42 1
    47    20    43 1
    48    24    44 1
    49    24    45 1
    50    25    46 1
    51    25    47 1
    52    26    48 1
    53    26    49 1
    54    27    50 1
    55    27    51 1
@<TRIPOS>SUBSTRUCTURE
     1 I2O         1 TEMP              0 ****  ****    0 ROOT
