@<TRIPOS>MOLECULE
I2P
   33    33     1     0     0
SMALL
bcc


@<TRIPOS>ATOM
      1 C1          0.1190   -0.6830   -0.2080 c3        1 I2P      0.121100
      2 C2          1.5670   -0.1750    0.0380 c3        1 I2P      0.219100
      3 C3          2.3220   -0.9570    1.1570 c3        1 I2P      0.109100
      4 C4          1.5390   -1.6920    2.3280 c3        1 I2P      0.198100
      5 C5          0.0410   -1.2150    2.3040 c3        1 I2P      0.210100
      6 C6         -0.4120   -1.6510    0.8620 c3        1 I2P      0.117100
      7 O1         -0.0210   -1.3190   -1.4760 oh        1 I2P     -0.672800
      8 O2          2.2960   -0.1570   -1.1470 os        1 I2P     -0.590200
      9 O3          3.1700   -1.9210    0.5480 oh        1 I2P     -0.652800
     10 O4          2.2190   -1.4990    3.5210 os        1 I2P     -0.580200
     11 O5         -0.7880   -1.7930    3.2510 os        1 I2P     -0.587200
     12 O6         -1.8170   -1.7600    0.6820 oh        1 I2P     -0.697800
     13 P2          2.4110    1.1800   -2.1960 p5        1 I2P      1.343900
     14 O21         2.1860    2.4540   -1.4170 o         1 I2P     -0.963167
     15 O22         3.7930    1.1150   -2.8200 o         1 I2P     -0.963167
     16 O23         1.3240    0.8670   -3.2090 o         1 I2P     -0.963167
     17 P4          3.3610   -2.6470    4.0870 p5        1 I2P      1.348900
     18 O41         4.4720   -2.6130    3.0510 o         1 I2P     -0.962167
     19 O42         3.8220   -2.0950    5.4230 o         1 I2P     -0.962167
     20 O43         2.7490   -4.0260    4.1890 o         1 I2P     -0.962167
     21 P5         -2.0220   -0.9460    4.0870 p5        1 I2P      1.350900
     22 O51        -3.2050   -1.1390    3.1470 o         1 I2P     -0.958167
     23 O52        -2.2600   -1.6770    5.3920 o         1 I2P     -0.958167
     24 O53        -1.6530    0.5060    4.2560 o         1 I2P     -0.958167
     25 H1         -0.5620    0.2200   -0.2200 h1        1 I2P     -0.002300
     26 H2          1.4700    0.8920    0.4070 h1        1 I2P      0.013700
     27 H3          2.9750   -0.1810    1.6590 h1        1 I2P      0.006700
     28 H4          1.5490   -2.8010    2.1020 h1        1 I2P      0.008700
     29 H5         -0.0080   -0.0960    2.4030 h1        1 I2P      0.029700
     30 H6         -0.0040   -2.6800    0.6470 h1        1 I2P      0.019700
     31 HO1         0.5750   -0.8330   -2.0830 ho        1 I2P      0.441000
     32 HO3         3.7010   -2.2820    1.2880 ho        1 I2P      0.436000
     33 HO6        -2.2370   -1.5820    1.5510 ho        1 I2P      0.460000
@<TRIPOS>BOND
     1    1    2 1   
     2    1    6 1   
     3    1    7 1   
     4    1   25 1   
     5    2    3 1   
     6    2    8 1   
     7    2   26 1   
     8    3    4 1   
     9    3    9 1   
    10    3   27 1   
    11    4    5 1   
    12    4   10 1   
    13    4   28 1   
    14    5    6 1   
    15    5   11 1   
    16    5   29 1   
    17    6   12 1   
    18    6   30 1   
    19    7   31 1   
    20    8   13 1   
    21    9   32 1   
    22   10   17 1   
    23   11   21 1   
    24   12   33 1   
    25   13   14 1   
    26   13   15 1   
    27   13   16 1   
    28   17   18 1   
    29   17   19 1   
    30   17   20 1   
    31   21   22 1   
    32   21   23 1   
    33   21   24 1   
@<TRIPOS>SUBSTRUCTURE
     1 I2P         1 TEMP              0 ****  ****    0 ROOT
