@<TRIPOS>MOLECULE
molecule
   33    33     1     0     0
SMALL
bcc


@<TRIPOS>ATOM
      1 C1           0.0000     0.0000     0.0000 c3         1 I2P       0.111100
      2 C2           1.5300     0.0000     0.0000 c3         1 I2P       0.160100
      3 C3           2.0390     0.0000     1.4430 c3         1 I2P       0.124100
      4 C4           1.5280    -1.2490     2.1630 c3         1 I2P       0.172100
      5 C5          -0.0010    -1.2480     2.1630 c3         1 I2P       0.177100
      6 C6          -0.5110    -1.2480     0.7220 c3         1 I2P       0.117100
      7 O1          -0.4760     0.0000    -1.3480 oh         1 I2P      -0.574800
      8 O2           2.0060    -1.1670    -0.6730 os         1 I2P      -0.493200
      9 O3           3.4680    -0.0000     1.4430 oh         1 I2P      -0.498800
     10 O4           2.0040    -1.2480     3.5100 os         1 I2P      -0.505200
     11 O5          -0.4780    -2.4140     2.8360 os         1 I2P      -0.483200
     12 O6          -1.9400    -1.2470     0.7200 oh         1 I2P      -0.595800
     13 P2           2.8870    -0.6580    -1.9200 p5         1 I2P       1.237900
     14 O21          4.0160     0.1590    -1.4240 o          1 I2P      -0.958167
     15 O22          3.4590    -1.9280    -2.7280 o          1 I2P      -0.958167
     16 O23          1.9710     0.2320    -2.8980 o          1 I2P      -0.958167
     17 P4           2.8850    -2.5830     3.6930 p5         1 I2P       1.219900
     18 O41          4.0150    -2.5640     2.7370 o          1 I2P      -0.948167
     19 O42          3.4570    -2.6490     5.1970 o          1 I2P      -0.948167
     20 O43          1.9660    -3.8750     3.4120 o          1 I2P      -0.948167
     21 P5          -1.3600    -1.9030     4.0840 p5         1 I2P       1.230900
     22 O51         -2.4890    -1.0850     3.5870 o          1 I2P      -0.956500
     23 O52         -1.9320    -3.1720     4.8920 o          1 I2P      -0.956500
     24 O53         -0.4410    -1.0140     5.0620 o          1 I2P      -0.956500
     25 H1          -0.3590     0.8840     0.5140 h1         1 I2P      -0.009300
     26 H2           1.8890     0.8870    -0.5080 h1         1 I2P       0.025700
     27 H3           1.6730     0.8830     1.9530 h1         1 I2P      -0.028300
     28 H4           1.8870    -2.1330     1.6490 h1         1 I2P       0.110700
     29 H5          -0.3590    -0.3610     2.6710 h1         1 I2P       0.042700
     30 H6          -0.1460    -2.1310     0.2120 h1         1 I2P       0.069700
     31 HO1         -1.0190     0.7580    -1.4890 ho         1 I2P       0.325000
     32 HO3          3.7820     0.8240     1.7760 ho         1 I2P       0.319000
     33 HO6         -2.2540    -1.9260     0.1470 ho         1 I2P       0.336000
@<TRIPOS>BOND
     1     1     2 1
     2     1     6 1
     3     1     7 1
     4     1    25 1
     5     2     3 1
     6     2     8 1
     7     2    26 1
     8     3     4 1
     9     3     9 1
    10     3    27 1
    11     4     5 1
    12     4    10 1
    13     4    28 1
    14     5     6 1
    15     5    11 1
    16     5    29 1
    17     6    12 1
    18     6    30 1
    19     7    31 1
    20     8    13 1
    21     9    32 1
    22    10    17 1
    23    11    21 1
    24    12    33 1
    25    13    14 1
    26    13    15 1
    27    13    16 1
    28    17    18 1
    29    17    19 1
    30    17    20 1
    31    21    22 1
    32    21    23 1
    33    21    24 1
@<TRIPOS>SUBSTRUCTURE
     1 I2P         1 TEMP              0 ****  ****    0 ROOT
