@<TRIPOS>MOLECULE
molecule
   36    38     1     0     0
SMALL
bcc


@<TRIPOS>ATOM
      1 CAA          0.0000     0.0000     0.0000 c3         1 I30      -0.166400
      2 OAB          3.3490    -0.0030    -3.5050 o          1 I30      -0.535100
      3 BrAD        -2.5750    -0.0020    -5.9930 br         1 I30      -0.085100
      4 CAE          5.0080     0.0000     4.8640 ca         1 I30      -0.110000
      5 CAF          3.7840     0.0010     5.5180 ca         1 I30      -0.146000
      6 CAG          0.0100    -0.0050    -7.1860 ca         1 I30      -0.046000
      7 CAH          1.3910    -0.0050    -7.1950 ca         1 I30      -0.213000
      8 CAI          5.0650    -0.0000     3.4860 ca         1 I30      -0.127000
      9 CAJ          2.6160     0.0020     4.8110 ca         1 I30      -0.069000
     10 CAK         -0.0010    -0.0030    -4.7890 ca         1 I30      -0.054000
     11 NAL          2.1580    -0.0010    -1.1250 n2         1 I30      -0.423300
     12 NAM          3.6060    -0.0010     1.3970 na         1 I30      -0.240300
     13 NAN          1.4580    -0.0020    -2.3390 ns         1 I30      -0.349900
     14 NAO          1.6880     0.0010     2.4640 nc         1 I30      -0.591100
     15 CAP          1.5070     0.0000     0.0000 cf         1 I30       0.334000
     16 CAQ          2.1330    -0.0030    -3.5050 c          1 I30       0.692700
     17 CAR         -0.6830    -0.0040    -5.9870 ca         1 I30      -0.057900
     18 CAS          2.0930    -0.0050    -5.9990 ca         1 I30       0.200100
     19 CAT          1.3960    -0.0030    -4.7830 ca         1 I30      -0.174600
     20 CAU          2.2400     0.0010     1.2720 cd         1 I30       0.394500
     21 CAV          3.8900     0.0000     2.7490 ca         1 I30      -0.086200
     22 CAW          2.6480     0.0010     3.4120 ca         1 I30       0.090400
     23 HAA         -0.3610     0.8820    -0.5150 hc         1 I30       0.063367
     24 HAAA        -0.3610    -0.8870    -0.5060 hc         1 I30       0.063367
     25 HAAB        -0.3610     0.0050     1.0210 hc         1 I30       0.063367
     26 HOAC         3.7610    -0.5640    -6.7000 ho         1 I30       0.425000
     27 HAE          5.9260    -0.0010     5.4400 ha         1 I30       0.134000
     28 HAF          3.7550     0.0010     6.6010 ha         1 I30       0.134000
     29 HAG         -0.5340    -0.0060    -8.1230 ha         1 I30       0.151000
     30 HAH          1.9260    -0.0060    -8.1360 ha         1 I30       0.148000
     31 HAI          6.0240    -0.0010     2.9820 ha         1 I30       0.131000
     32 HAJ          1.6670     0.0030     5.3320 ha         1 I30       0.142000
     33 HAK         -0.5470     0.0460    -3.8550 ha         1 I30       0.141000
     34 HNAM         4.2720    -0.0010     0.6490 hn         1 I30       0.324700
     35 HNAN         0.4570    -0.0210    -2.3400 hn         1 I30       0.306500
     36 OAC          3.4510    -0.0060    -6.0060 oh         1 I30      -0.462100
@<TRIPOS>BOND
     1     1    15 1
     2     2    16 2
     3    36    18 1
     4     3    17 1
     5     4     5 ar
     6     4     8 ar
     7     5     9 ar
     8     6     7 ar
     9     6    17 ar
    10     7    18 ar
    11     8    21 ar
    12     9    22 ar
    13    10    17 ar
    14    10    19 ar
    15    11    13 1
    16    11    15 2
    17    12    20 1
    18    12    21 1
    19    13    16 1
    20    14    20 2
    21    14    22 1
    22    15    20 1
    23    16    19 1
    24    18    19 ar
    25    21    22 ar
    26     1    23 1
    27     1    24 1
    28     1    25 1
    29    36    26 1
    30     4    27 1
    31     5    28 1
    32     6    29 1
    33     7    30 1
    34     8    31 1
    35     9    32 1
    36    10    33 1
    37    12    34 1
    38    13    35 1
@<TRIPOS>SUBSTRUCTURE
     1 I30         1 TEMP              0 ****  ****    0 ROOT
