@<TRIPOS>MOLECULE
I30
   36    38     1     0     0
SMALL
bcc


@<TRIPOS>ATOM
      1 CAA          0.0000     0.0000     0.0000 c3         1 I30      -0.060400
      2 OAB          3.3490    -0.0030    -3.5050 o          1 I30      -0.578100
      3 BrAD        -2.5750    -0.0020    -5.9930 br         1 I30      -0.119100
      4 CAE          5.0080     0.0000     4.8640 ca         1 I30      -0.088000
      5 CAF          3.7840     0.0010     5.5180 ca         1 I30      -0.119000
      6 CAG          0.0100    -0.0050    -7.1860 ca         1 I30      -0.019000
      7 CAH          1.3910    -0.0050    -7.1950 ca         1 I30      -0.197000
      8 CAI          5.0650    -0.0000     3.4860 ca         1 I30      -0.085000
      9 CAJ          2.6160     0.0020     4.8110 ca         1 I30      -0.039000
     10 CAK         -0.0010    -0.0030    -4.7890 ca         1 I30      -0.036000
     11 NAL          2.1580    -0.0010    -1.1250 n2         1 I30      -0.510300
     12 NAM          3.6060    -0.0010     1.3970 na         1 I30       0.307700
     13 NAN          1.4580    -0.0020    -2.3390 ns         1 I30       0.019100
     14 NAO          1.6880     0.0010     2.4640 nc         1 I30      -0.509100
     15 CAP          1.5070     0.0000     0.0000 cf         1 I30       0.331000
     16 CAQ          2.1330    -0.0030    -3.5050 c          1 I30       0.609700
     17 CAR         -0.6830    -0.0040    -5.9870 ca         1 I30      -0.011900
     18 CAS          2.0930    -0.0050    -5.9990 ca         1 I30       0.220100
     19 CAT          1.3960    -0.0030    -4.7830 ca         1 I30      -0.195600
     20 CAU          2.2400     0.0010     1.2720 cd         1 I30       0.166500
     21 CAV          3.8900     0.0000     2.7490 ca         1 I30      -0.277200
     22 CAW          2.6480     0.0010     3.4120 ca         1 I30       0.062400
     23 HAA         -0.3610    -0.0040     1.0210 hc         1 I30       0.026700
     24 HAAA        -0.3610     0.8860    -0.5080 hc         1 I30       0.026700
     25 HAAB        -0.3610    -0.8830    -0.5140 hc         1 I30       0.026700
     26 HOAC         3.7620     0.5490    -6.7010 ho         1 I30       0.401000
     27 HAE          5.9260    -0.0010     5.4400 ha         1 I30       0.103000
     28 HAF          3.7550     0.0010     6.6010 ha         1 I30       0.104000
     29 HAG         -0.5340    -0.0060    -8.1230 ha         1 I30       0.117000
     30 HAH          1.9260    -0.0060    -8.1360 ha         1 I30       0.120000
     31 HAI          6.0240    -0.0010     2.9820 ha         1 I30       0.102000
     32 HAJ          1.6670     0.0030     5.3320 ha         1 I30       0.109000
     33 HAK         -0.5470    -0.0440    -3.8540 ha         1 I30       0.113000
     34 HNAM         4.2720    -0.0010     0.6490 hn         1 I30       0.145700
     35 HNAN         0.4570     0.0220    -2.3400 hn         1 I30       0.171500
     36 OAC          3.4510    -0.0060    -6.0060 oh         1 I30      -0.440100
@<TRIPOS>BOND
     1     1    15 1   
     2     1    23 1   
     3     1    24 1   
     4     1    25 1   
     5     2    16 2   
     6     3    17 1   
     7     4     5 ar  
     8     4     8 ar  
     9     4    27 1   
    10     5     9 ar  
    11     5    28 1   
    12     6     7 ar  
    13     6    17 ar  
    14     6    29 1   
    15     7    18 ar  
    16     7    30 1   
    17     8    21 ar  
    18     8    31 1   
    19     9    22 ar  
    20     9    32 1   
    21    10    17 ar  
    22    10    19 ar  
    23    10    33 1   
    24    11    13 1   
    25    11    15 2   
    26    12    20 1   
    27    12    21 1   
    28    12    34 1   
    29    13    16 1   
    30    13    35 1   
    31    14    20 2   
    32    14    22 1   
    33    15    20 1   
    34    16    19 1   
    35    18    19 ar  
    36    18    36 1   
    37    21    22 ar  
    38    26    36 1   
@<TRIPOS>SUBSTRUCTURE
     1 I30         1 TEMP              0 ****  ****    0 ROOT
