@<TRIPOS>MOLECULE
molecule
   66    69     1     0     0
SMALL
bcc


@<TRIPOS>ATOM
      1 N1           0.0000     0.0000     0.0000 nu         1 I31      -0.917200
      2 C5           1.4730     0.0000     0.0000 c3         1 I31       0.262500
      3 C57          2.0120     1.2590    -0.6860 c3         1 I31      -0.094100
      4 C51          2.0040    -1.2380    -0.6730 ca         1 I31      -0.085300
      5 C4           1.8280     0.0000     1.5000 c3         1 I31       0.174500
      6 C47          2.6190     1.2580     1.8640 c3         1 I31      -0.072100
      7 C41          2.6080    -1.2390     1.8570 ca         1 I31      -0.060300
      8 N3           0.5230    -0.0010     2.1750 n2         1 I31      -0.635900
      9 C2          -0.4300    -0.0010     1.3020 ce         1 I31       0.668800
     10 C21         -1.8620     0.0050     1.6750 ca         1 I31      -0.170900
     11 C56          1.1930    -2.3470    -0.8210 ca         1 I31      -0.109000
     12 C55          1.6790    -3.4840    -1.4380 ca         1 I31      -0.119500
     13 C54          2.9810    -3.5130    -1.9070 ca         1 I31       0.031400
     14 Cl5          3.5930    -4.9400    -2.6830 cl         1 I31      -0.111400
     15 C53          3.7930    -2.4020    -1.7600 ca         1 I31      -0.119500
     16 C52          3.3030    -1.2640    -1.1470 ca         1 I31      -0.109000
     17 C42          3.9810    -1.2610     1.6970 ca         1 I31      -0.103500
     18 C43          4.6970    -2.3960     2.0240 ca         1 I31      -0.125500
     19 C44          4.0410    -3.5120     2.5120 ca         1 I31       0.029400
     20 Cl4          4.9390    -4.9390     2.9230 cl         1 I31      -0.117400
     21 C45          2.6660    -3.4900     2.6730 ca         1 I31      -0.125500
     22 C46          1.9510    -2.3510     2.3500 ca         1 I31      -0.103500
     23 C22         -2.8440     0.0050     0.6840 ca         1 I31      -0.074000
     24 C23         -4.1770     0.0100     1.0380 ca         1 I31      -0.178000
     25 C24         -4.5450     0.0140     2.3720 ca         1 I31      -0.012300
     26 C30         -6.0050     0.0200     2.7470 c3         1 I31      -0.028700
     27 C32         -6.3150     1.2720     3.5690 c3         1 I31      -0.080767
     28 C31         -6.8570     0.0190     1.4770 c3         1 I31      -0.080767
     29 C25         -3.5810     0.0130     3.3620 ca         1 I31      -0.230000
     30 C26         -2.2370     0.0030     3.0230 ca         1 I31       0.192100
     31 O27         -1.2900    -0.0040     3.9950 os         1 I31      -0.280900
     32 C28         -1.7480    -0.0050     5.3480 c3         1 I31       0.128400
     33 C29         -0.5450    -0.0130     6.2940 c3         1 I31      -0.089100
     34 C33         -6.3230    -1.2270     3.5750 c3         1 I31      -0.080767
     35 H1          -0.5860    -0.0000    -0.8110 hn         1 I31       0.452800
     36 H3           1.5400     2.1340    -0.2560 hc         1 I31       0.046033
     37 H4           3.0840     1.3180    -0.5410 hc         1 I31       0.046033
     38 H5           1.7920     1.2140    -1.7460 hc         1 I31       0.046033
     39 H6           2.0030     2.1330     1.6950 hc         1 I31       0.044033
     40 H7           3.5080     1.3170     1.2480 hc         1 I31       0.044033
     41 H8           2.9050     1.2140     2.9080 hc         1 I31       0.044033
     42 H12          0.1740    -2.3250    -0.4530 ha         1 I31       0.140000
     43 H13          1.0420    -4.3530    -1.5530 ha         1 I31       0.143500
     44 H14          4.8110    -2.4230    -2.1290 ha         1 I31       0.143500
     45 H15          3.9390    -0.3950    -1.0310 ha         1 I31       0.140000
     46 H16          4.4950    -0.3870     1.3150 ha         1 I31       0.143500
     47 H17          5.7730    -2.4120     1.8980 ha         1 I31       0.141000
     48 H18          2.1520    -4.3620     3.0570 ha         1 I31       0.141000
     49 H19          0.8760    -2.3340     2.4760 ha         1 I31       0.143500
     50 H20         -2.5600     0.0020    -0.3610 ha         1 I31       0.129000
     51 H21         -4.9390     0.0100     0.2680 ha         1 I31       0.141000
     52 H22         -5.8970     1.1640     4.5630 hc         1 I31       0.038144
     53 H23         -5.8800     2.1380     3.0860 hc         1 I31       0.038144
     54 H24         -7.3890     1.3990     3.6410 hc         1 I31       0.038144
     55 H25         -7.9060     0.0270     1.7460 hc         1 I31       0.038144
     56 H26         -6.6400    -0.8690     0.8970 hc         1 I31       0.038144
     57 H27         -6.6290     0.9000     0.8890 hc         1 I31       0.038144
     58 H28         -3.8760     0.0140     4.4050 ha         1 I31       0.143000
     59 H29         -2.3510    -0.8870     5.5250 h1         1 I31       0.031200
     60 H30         -2.3430     0.8820     5.5290 h1         1 I31       0.031200
     61 H31         -0.8920     0.0430     7.3190 hc         1 I31       0.049367
     62 H32          0.0880     0.8400     6.0810 hc         1 I31       0.049367
     63 H33          0.0200    -0.9260     6.1530 hc         1 I31       0.049367
     64 H34         -5.9240    -1.1080     4.5760 hc         1 I31       0.038144
     65 H35         -7.3970    -1.3610     3.6290 hc         1 I31       0.038144
     66 H36         -5.8740    -2.0950     3.1080 hc         1 I31       0.038144
@<TRIPOS>BOND
     1     3     2 1
     2    16    15 ar
     3    16     4 ar
     4    15    13 ar
     5    18    17 ar
     6    18    19 ar
     7    17     7 ar
     8     6     5 1
     9     2     4 1
    10     2     5 1
    11     2     1 1
    12     4    11 ar
    13    20    19 1
    14    19    21 ar
    15    13    14 1
    16    13    12 ar
    17     7     5 1
    18     7    22 ar
    19     5     8 1
    20     1     9 1
    21    11    12 ar
    22    21    22 ar
    23     8     9 2
    24     9    10 1
    25    33    32 1
    26    31    32 1
    27    31    30 1
    28    10    30 ar
    29    10    23 ar
    30    30    29 ar
    31    23    24 ar
    32    29    25 ar
    33    24    25 ar
    34    25    26 1
    35    34    26 1
    36    26    28 1
    37    26    27 1
    38     1    35 1
    39     3    36 1
    40     3    37 1
    41     3    38 1
    42     6    39 1
    43     6    40 1
    44     6    41 1
    45    11    42 1
    46    12    43 1
    47    15    44 1
    48    16    45 1
    49    17    46 1
    50    18    47 1
    51    21    48 1
    52    22    49 1
    53    23    50 1
    54    24    51 1
    55    27    52 1
    56    27    53 1
    57    27    54 1
    58    28    55 1
    59    28    56 1
    60    28    57 1
    61    29    58 1
    62    32    59 1
    63    32    60 1
    64    33    61 1
    65    33    62 1
    66    33    63 1
    67    34    64 1
    68    34    65 1
    69    34    66 1
@<TRIPOS>SUBSTRUCTURE
     1 I31         1 TEMP              0 ****  ****    0 ROOT
