@<TRIPOS>MOLECULE
I31
   66    69     1     0     0
SMALL
bcc


@<TRIPOS>ATOM
      1 N1           0.0000     0.0000     0.0000 nu         1 I31      -0.521200
      2 C5           1.4730     0.0000     0.0000 c3         1 I31       0.157500
      3 C57          2.0120     1.2590    -0.6860 c3         1 I31      -0.020100
      4 C51          2.0040    -1.2380    -0.6730 ca         1 I31      -0.093300
      5 C4           1.8280     0.0000     1.5000 c3         1 I31       0.181500
      6 C47          2.6190     1.2580     1.8640 c3         1 I31      -0.002100
      7 C41          2.6080    -1.2390     1.8570 ca         1 I31      -0.070300
      8 N3           0.5230    -0.0010     2.1750 n2         1 I31      -0.619900
      9 C2          -0.4300    -0.0010     1.3020 ce         1 I31       0.542800
     10 C21         -1.8620     0.0050     1.6750 ca         1 I31      -0.186900
     11 C56          1.1930    -2.3470    -0.8210 ca         1 I31      -0.087500
     12 C55          1.6790    -3.4840    -1.4380 ca         1 I31      -0.094000
     13 C54          2.9810    -3.5130    -1.9070 ca         1 I31      -0.031600
     14 Cl5          3.5930    -4.9400    -2.6830 cl         1 I31      -0.027400
     15 C53          3.7930    -2.4020    -1.7600 ca         1 I31      -0.094000
     16 C52          3.3030    -1.2640    -1.1470 ca         1 I31      -0.087500
     17 C42          3.9810    -1.2610     1.6970 ca         1 I31      -0.083500
     18 C43          4.6970    -2.3960     2.0240 ca         1 I31      -0.102000
     19 C44          4.0410    -3.5120     2.5120 ca         1 I31      -0.032600
     20 Cl4          4.9390    -4.9390     2.9230 cl         1 I31      -0.037400
     21 C45          2.6660    -3.4900     2.6730 ca         1 I31      -0.102000
     22 C46          1.9510    -2.3510     2.3500 ca         1 I31      -0.083500
     23 C22         -2.8440     0.0050     0.6840 ca         1 I31      -0.050000
     24 C23         -4.1770     0.0100     1.0380 ca         1 I31      -0.166000
     25 C24         -4.5450     0.0140     2.3720 ca         1 I31      -0.012300
     26 C30         -6.0050     0.0200     2.7470 c3         1 I31      -0.020700
     27 C32         -6.3150     1.2720     3.5690 c3         1 I31       0.005567
     28 C31         -6.8570     0.0190     1.4770 c3         1 I31       0.005567
     29 C25         -3.5810     0.0130     3.3620 ca         1 I31      -0.225000
     30 C26         -2.2370     0.0030     3.0230 ca         1 I31       0.206100
     31 O27         -1.2900    -0.0040     3.9950 os         1 I31      -0.252900
     32 C28         -1.7480    -0.0050     5.3480 c3         1 I31       0.189400
     33 C29         -0.5450    -0.0130     6.2940 c3         1 I31       0.002900
     34 C33         -6.3230    -1.2270     3.5750 c3         1 I31       0.005567
     35 H1          -0.5860    -0.0000    -0.8110 hn         1 I31       0.317800
     36 H3           1.5400     2.1340    -0.2560 hc         1 I31       0.020033
     37 H4           3.0840     1.3180    -0.5410 hc         1 I31       0.020033
     38 H5           1.7920     1.2140    -1.7460 hc         1 I31       0.020033
     39 H6           2.0030     2.1330     1.6950 hc         1 I31       0.016367
     40 H7           3.5080     1.3170     1.2480 hc         1 I31       0.016367
     41 H8           2.9050     1.2140     2.9080 hc         1 I31       0.016367
     42 H12          0.1740    -2.3250    -0.4530 ha         1 I31       0.115000
     43 H13          1.0420    -4.3530    -1.5530 ha         1 I31       0.115000
     44 H14          4.8110    -2.4230    -2.1290 ha         1 I31       0.115000
     45 H15          3.9390    -0.3950    -1.0310 ha         1 I31       0.115000
     46 H16          4.4950    -0.3870     1.3150 ha         1 I31       0.119500
     47 H17          5.7730    -2.4120     1.8980 ha         1 I31       0.112500
     48 H18          2.1520    -4.3620     3.0570 ha         1 I31       0.112500
     49 H19          0.8760    -2.3340     2.4760 ha         1 I31       0.119500
     50 H20         -2.5600     0.0020    -0.3610 ha         1 I31       0.099000
     51 H21         -4.9390     0.0100     0.2680 ha         1 I31       0.124000
     52 H22         -5.8970     1.1640     4.5630 hc         1 I31       0.008144
     53 H23         -5.8800     2.1380     3.0860 hc         1 I31       0.008144
     54 H24         -7.3890     1.3990     3.6410 hc         1 I31       0.008144
     55 H25         -7.9060     0.0270     1.7460 hc         1 I31       0.008144
     56 H26         -6.6400    -0.8690     0.8970 hc         1 I31       0.008144
     57 H27         -6.6290     0.9000     0.8890 hc         1 I31       0.008144
     58 H28         -3.8760     0.0140     4.4050 ha         1 I31       0.132000
     59 H29         -2.3510    -0.8870     5.5250 h1         1 I31      -0.003300
     60 H30         -2.3430     0.8820     5.5290 h1         1 I31      -0.003300
     61 H31         -0.8920     0.0430     7.3190 hc         1 I31       0.012367
     62 H32          0.0880     0.8400     6.0810 hc         1 I31       0.012367
     63 H33          0.0200    -0.9260     6.1530 hc         1 I31       0.012367
     64 H34         -5.9240    -1.1080     4.5760 hc         1 I31       0.008144
     65 H35         -7.3970    -1.3610     3.6290 hc         1 I31       0.008144
     66 H36         -5.8740    -2.0950     3.1080 hc         1 I31       0.008144
@<TRIPOS>BOND
     1     1     2 1   
     2     1     9 1   
     3     1    35 1   
     4     2     3 1   
     5     2     4 1   
     6     2     5 1   
     7     3    36 1   
     8     3    37 1   
     9     3    38 1   
    10     4    11 ar  
    11     4    16 ar  
    12     5     6 1   
    13     5     7 1   
    14     5     8 1   
    15     6    39 1   
    16     6    40 1   
    17     6    41 1   
    18     7    17 ar  
    19     7    22 ar  
    20     8     9 2   
    21     9    10 1   
    22    10    23 ar  
    23    10    30 ar  
    24    11    12 ar  
    25    11    42 1   
    26    12    13 ar  
    27    12    43 1   
    28    13    14 1   
    29    13    15 ar  
    30    15    16 ar  
    31    15    44 1   
    32    16    45 1   
    33    17    18 ar  
    34    17    46 1   
    35    18    19 ar  
    36    18    47 1   
    37    19    20 1   
    38    19    21 ar  
    39    21    22 ar  
    40    21    48 1   
    41    22    49 1   
    42    23    24 ar  
    43    23    50 1   
    44    24    25 ar  
    45    24    51 1   
    46    25    26 1   
    47    25    29 ar  
    48    26    27 1   
    49    26    28 1   
    50    26    34 1   
    51    27    52 1   
    52    27    53 1   
    53    27    54 1   
    54    28    55 1   
    55    28    56 1   
    56    28    57 1   
    57    29    30 ar  
    58    29    58 1   
    59    30    31 1   
    60    31    32 1   
    61    32    33 1   
    62    32    59 1   
    63    32    60 1   
    64    33    61 1   
    65    33    62 1   
    66    33    63 1   
    67    34    64 1   
    68    34    65 1   
    69    34    66 1   
@<TRIPOS>SUBSTRUCTURE
     1 I31         1 TEMP              0 ****  ****    0 ROOT
