@<TRIPOS>MOLECULE
molecule
   42    43     1     0     0
SMALL
bcc


@<TRIPOS>ATOM
      1 O2           0.0000     0.0000     0.0000 oh         1 I32      -0.576800
      2 C10          1.4290     0.0000     0.0000 c3         1 I32       0.176100
      3 C11          1.9380     0.0000     1.4420 c3         1 I32       0.083800
      4 N2           1.4490     1.1990     2.1360 n7         1 I32      -0.705200
      5 C12          1.9190     1.2330     3.5270 c3         1 I32       0.108200
      6 C15          3.4490     1.2450     3.5470 c3         1 I32      -0.095767
      7 C13          1.3910     2.4930     4.2140 c3         1 I32      -0.095767
      8 C9           1.9390    -1.2490    -0.7210 c3         1 I32       0.074400
      9 O1           1.5620    -1.1910    -2.0980 os         1 I32      -0.303900
     10 C4           1.9390    -2.2310    -2.8860 ca         1 I32       0.199100
     11 C5           2.6560    -3.2830    -2.3500 ca         1 I32      -0.259000
     12 C6           3.0450    -4.3470    -3.1500 ca         1 I32      -0.051000
     13 C7           2.7240    -4.3740    -4.4890 ca         1 I32      -0.191000
     14 C8           2.0010    -3.3270    -5.0550 ca         1 I32       0.011800
     15 C3           1.5990    -2.2460    -4.2480 ca         1 I32      -0.118800
     16 N1           1.5460    -3.0820    -6.3310 na         1 I32      -0.158400
     17 C1           0.8730    -1.8730    -6.3380 cc         1 I32       0.055200
     18 C2           0.8850    -1.3510    -5.0810 cd         1 I32       0.055600
     19 C16          0.2540    -1.2740    -7.4810 cg         1 I32       0.212500
     20 C14          1.4090    -0.0050     4.2680 c3         1 I32      -0.095767
     21 IAA          0.0230     0.4650    -4.4900 i          1 I32      -0.101800
     22 NAF         -0.2520    -0.7900    -8.3760 n1         1 I32      -0.329800
     23 H2          -0.3140     0.7330    -0.5030 ho         1 I32       0.407000
     24 H10          1.7900     0.8850    -0.5100 h1         1 I32       0.041700
     25 H111         2.2510    -1.0010     1.7150 h1         1 I32       0.056700
     26 H112         2.7790     0.6770     1.5280 h1         1 I32       0.056700
     27 H91C         2.8430    -1.0060    -1.2670 h1         1 I32       0.067700
     28 H92C         2.1530    -2.0230     0.0060 h1         1 I32       0.067700
     29 HA           2.1250     1.9320     2.0510 hn         1 I32       0.321800
     30 H151         3.7960     1.4580     4.5510 hc         1 I32       0.040811
     31 H152         3.8230     0.2770     3.2340 hc         1 I32       0.040811
     32 H153         3.8130     2.0090     2.8700 hc         1 I32       0.040811
     33 H131         0.3860     2.3130     4.5760 hc         1 I32       0.040811
     34 H132         2.0340     2.7470     5.0480 hc         1 I32       0.040811
     35 H133         1.3780     3.3120     3.5050 hc         1 I32       0.040811
     36 H141         1.7120     0.0460     5.3070 hc         1 I32       0.040811
     37 H142         0.3280    -0.0410     4.2080 hc         1 I32       0.040811
     38 H143         1.8260    -0.8950     3.8130 hc         1 I32       0.040811
     39 H5           2.9180    -3.2810    -1.2990 ha         1 I32       0.138000
     40 H6           3.6070    -5.1690    -2.7230 ha         1 I32       0.136000
     41 H7           3.0340    -5.2100    -5.1040 ha         1 I32       0.132000
     42 H1           1.6740    -3.6750    -7.1270 hn         1 I32       0.312700
@<TRIPOS>BOND
     1     1     2 1
     2     2     3 1
     3     2     8 1
     4     3     4 1
     5     4     5 1
     6     5     6 1
     7     5     7 1
     8     5    20 1
     9     8     9 1
    10     9    10 1
    11    10    11 ar
    12    10    15 ar
    13    11    12 ar
    14    12    13 ar
    15    13    14 ar
    16    14    15 ar
    17    14    16 1
    18    15    18 1
    19    16    17 1
    20    17    18 2
    21    17    19 1
    22    18    21 1
    23    19    22 3
    24     1    23 1
    25     2    24 1
    26     3    25 1
    27     3    26 1
    28     8    27 1
    29     8    28 1
    30     4    29 1
    31     6    30 1
    32     6    31 1
    33     6    32 1
    34     7    33 1
    35     7    34 1
    36     7    35 1
    37    20    36 1
    38    20    37 1
    39    20    38 1
    40    11    39 1
    41    12    40 1
    42    13    41 1
    43    16    42 1
@<TRIPOS>SUBSTRUCTURE
     1 I32         1 TEMP              0 ****  ****    0 ROOT
