@<TRIPOS>MOLECULE
molecule
   42    43     1     0     0
SMALL
bcc


@<TRIPOS>ATOM
      1 N1          -0.8540    -0.0100    -2.4640 n1         1 I37      -0.350800
      2 C1          -0.4910     0.0000    -1.3880 c1         1 I37       0.178700
      3 C2           0.0000     0.0000     0.0000 c3         1 I37       0.188100
      4 N3           1.4650     0.0000     0.0000 ns         1 I37      -0.531900
      5 C4           2.1390     0.0000     1.1670 c          1 I37       0.655100
      6 O5           1.5370     0.0920     2.2160 o          1 I37      -0.605100
      7 C6           3.6420    -0.1130     1.1690 c3         1 I37       0.018400
      8 C7           4.2580     1.2710     0.9610 c3         1 I37      -0.124400
      9 C8           5.7840     1.1560     0.9630 c3         1 I37      -0.450900
     10 C9           6.2500     0.5860     2.3040 c3         1 I37      -0.281400
     11 C10          5.6340    -0.7980     2.5120 c3         1 I37      -0.450900
     12 C11          4.1090    -0.6830     2.5100 c3         1 I37      -0.124400
     13 N12          4.0660    -1.0040     0.0860 ns         1 I37      -0.472900
     14 C13          3.5660    -2.2540     0.0070 c          1 I37       0.629700
     15 O14          2.8360    -2.6730     0.8840 o          1 I37      -0.616100
     16 C15          3.9070    -3.1120    -1.1430 ca         1 I37      -0.225600
     17 C16          4.7520    -2.6340    -2.1490 ca         1 I37      -0.084000
     18 C17          5.0670    -3.4390    -3.2220 ca         1 I37       0.053900
     19 C18          4.5450    -4.7280    -3.3040 ca         1 I37       0.204600
     20 C19          3.7030    -5.2060    -2.3040 ca         1 I37      -0.161000
     21 C20          3.3890    -4.4080    -1.2270 ca         1 I37      -0.076000
     22 N21          4.8650    -5.5390    -4.3890 nv         1 I37      -0.928200
     23 F22          5.8840    -2.9770    -4.1950 f          1 I37      -0.137900
     24 H1          -0.3660     0.9670     0.3240 h1         1 I37       0.090700
     25 H2          -0.4110    -0.9040     0.4330 h1         1 I37       0.090700
     26 H3           2.0420    -0.5610    -0.5940 hn         1 I37       0.322500
     27 H4           4.4080     1.8280     1.8780 hc         1 I37       0.127950
     28 H5           4.1700     1.6280    -0.0580 hc         1 I37       0.127950
     29 H6           6.1380     1.9400     0.3040 hc         1 I37       0.162700
     30 H7           6.0640     0.9800     1.9950 hc         1 I37       0.162700
     31 H8           7.2970     0.7670     2.0930 hc         1 I37       0.159700
     32 H9           5.8790    -0.4150     2.4890 hc         1 I37       0.159700
     33 H10          5.7940    -0.9640     3.5710 hc         1 I37       0.162700
     34 H11          4.6120    -0.4490     2.5940 hc         1 I37       0.162700
     35 H12          3.6210    -0.3660     3.4240 hc         1 I37       0.127950
     36 H13          3.5840    -1.6270     2.5920 hc         1 I37       0.127950
     37 H14          5.0350    -1.2290     0.1930 hn         1 I37       0.320500
     38 H15          5.3060    -1.7250    -1.9530 ha         1 I37       0.160000
     39 H16          3.3760    -6.2250    -2.1370 ha         1 I37       0.154000
     40 H17          2.8570    -4.3450    -0.2860 ha         1 I37       0.187000
     41 H18          4.0600    -6.0050    -4.7580 hn         1 I37       0.442300
     42 H19          5.7480    -5.5770    -4.8590 hn         1 I37       0.442300
@<TRIPOS>BOND
     1    11    12 1
     2    11    10 1
     3    12     7 1
     4    15    14 2
     5    10     9 1
     6    14    16 1
     7    14    13 1
     8    17    16 ar
     9    17    18 ar
    10    23    18 1
    11    16    21 ar
    12    18    19 ar
    13    13     7 1
    14     7     5 1
    15     7     8 1
    16     4     3 1
    17     4     5 1
    18     1     2 3
    19    21    20 ar
    20     2     3 1
    21    19    20 ar
    22    19    22 1
    23     9     8 1
    24     5     6 2
    25     3    24 1
    26     3    25 1
    27     4    26 1
    28     8    27 1
    29     8    28 1
    30     9    29 1
    31     9    30 1
    32    10    31 1
    33    10    32 1
    34    11    33 1
    35    11    34 1
    36    12    35 1
    37    12    36 1
    38    13    37 1
    39    17    38 1
    40    20    39 1
    41    21    40 1
    42    22    41 1
    43    22    42 1
@<TRIPOS>SUBSTRUCTURE
     1 I37         1 TEMP              0 ****  ****    0 ROOT
