@<TRIPOS>MOLECULE
molecule
   21    20     1     0     0
SMALL
bcc


@<TRIPOS>ATOM
      1 S            0.0000     0.0000     0.0000 sh         1 I38      -0.470900
      2 C1           1.8140     0.0000     0.0000 c3         1 I38       0.073700
      3 C2           2.3240     0.0000     1.4420 c3         1 I38      -0.149400
      4 C3           3.8310    -0.0000     1.4420 c          1 I38       0.647100
      5 O3           4.4370    -0.0000     0.3920 o          1 I38      -0.653100
      6 N4           4.5040     0.0010     2.6090 ns         1 I38      -0.537900
      7 C5           5.9690    -0.0000     2.6100 c3         1 I38      -0.000300
      8 C51          6.4800    -1.4370     2.4850 c3         1 I38      -0.086100
      9 C6           6.4720     0.6010     3.8970 c          1 I38       0.887600
     10 O62          5.6870     0.9890     4.7300 o          1 I38      -0.842800
     11 O61          7.7920     0.7040     4.1200 o          1 I38      -0.842800
     12 HS          -0.4420    -0.1310    -1.2450 hs         1 I38       0.210800
     13 H11          2.1750     0.8850    -0.5110 h1         1 I38       0.070200
     14 H12          2.1750    -0.8840    -0.5110 h1         1 I38       0.070200
     15 H21          1.9630    -0.8840     1.9530 hc         1 I38       0.067200
     16 H22          1.9630     0.8850     1.9530 hc         1 I38       0.067200
     17 HN4          4.0040     0.0080     3.4760 hn         1 I38       0.328500
     18 H5           6.3310     0.5850     1.7740 h1         1 I38       0.072700
     19 H511         5.6430    -2.1230     2.5420 hc         1 I38       0.028700
     20 H512         7.1730    -1.6450     3.2900 hc         1 I38       0.028700
     21 H513         6.9830    -1.5590     1.5340 hc         1 I38       0.028700
@<TRIPOS>BOND
     1     1     2 1
     2     1    12 1
     3     2     3 1
     4     2    13 1
     5     2    14 1
     6     3     4 1
     7     3    15 1
     8     3    16 1
     9     4     5 2
    10     4     6 1
    11     6     7 1
    12     6    17 1
    13     7     8 1
    14     7     9 1
    15     7    18 1
    16     8    19 1
    17     8    20 1
    18     8    21 1
    19     9    10 1
    20     9    11 1
@<TRIPOS>SUBSTRUCTURE
     1 I38         1 TEMP              0 ****  ****    0 ROOT
