@<TRIPOS>MOLECULE
molecule
   39    41     1     0     0
SMALL
bcc


@<TRIPOS>ATOM
      1 O10          0.0000     0.0000     0.0000 o          1 I39      -0.486100
      2 C9           1.2150     0.0000     0.0000 c          1 I39       0.593300
      3 C4           1.9530     0.0000     1.2770 ca         1 I39      -0.244600
      4 C3           1.2600     0.1080     2.4890 ca         1 I39       0.219900
      5 F8          -0.0870     0.2110     2.4920 f          1 I39      -0.103900
      6 C2           1.9580     0.1060     3.6820 ca         1 I39      -0.230000
      7 C5           3.3460    -0.1130     1.2840 ca         1 I39      -0.032000
      8 C6           4.0290    -0.1120     2.4790 ca         1 I39      -0.200000
      9 C1           3.3390     0.0000     3.6780 ca         1 I39       0.194900
     10 F7           4.0160     0.0010     4.8470 f          1 I39      -0.124900
     11 C11          1.9530    -0.0060    -1.2770 ca         1 I39      -0.244600
     12 C16          2.0570    -1.1750    -2.0440 ca         1 I39      -0.060000
     13 C15          2.7540    -1.1420    -3.2330 ca         1 I39      -0.166300
     14 N14          3.3260    -0.0330    -3.6620 na         1 I39       0.178600
     15 O23          4.0300    -0.0560    -4.8910 o          1 I39      -0.356000
     16 C13          3.2620     1.1010    -2.9790 cp         1 I39      -0.097300
     17 C12          2.5680     1.1610    -1.7630 ca         1 I39       0.235600
     18 N24          2.4950     2.3480    -1.0500 nv         1 I39      -0.887200
     19 C17          3.9230     2.3170    -3.5100 cp         1 I39      -0.038000
     20 C22          5.2460     2.5960    -3.1740 ca         1 I39      -0.050300
     21 C25          6.0090     1.6620    -2.2700 c3         1 I39      -0.051800
     22 C21          5.8580     3.7300    -3.6710 ca         1 I39      -0.133000
     23 C20          5.1590     4.5870    -4.5000 ca         1 I39      -0.110000
     24 C19          3.8460     4.3160    -4.8370 ca         1 I39      -0.138000
     25 C18          3.2250     3.1830    -4.3510 ca         1 I39      -0.083000
     26 H2           1.4250     0.1920     4.6210 ha         1 I39       0.169000
     27 H5           3.8880    -0.2010     0.3490 ha         1 I39       0.155000
     28 H6           5.1090    -0.1980     2.4840 ha         1 I39       0.157000
     29 H16          1.5930    -2.0940    -1.7070 ha         1 I39       0.164000
     30 H15          2.8350    -2.0450    -3.8270 h4         1 I39       0.193000
     31 HN24         1.8670     2.4280    -0.2750 hn         1 I39       0.449300
     32 HN2A         3.0710     3.1240    -1.3090 hn         1 I39       0.449300
     33 H25          5.7710     0.6360    -2.5270 hc         1 I39       0.046033
     34 H25A         5.7330     1.8500    -1.2400 hc         1 I39       0.046033
     35 H25B         7.0730     1.8270    -2.3950 hc         1 I39       0.046033
     36 H21          6.8870     3.9480    -3.4110 ha         1 I39       0.134000
     37 H20          5.6420     5.4770    -4.8870 ha         1 I39       0.131000
     38 H19          3.3050     4.9910    -5.4890 ha         1 I39       0.134000
     39 H18          2.1960     2.9720    -4.6160 ha         1 I39       0.140000
@<TRIPOS>BOND
     1     1     2 2
     2     2     3 1
     3     2    11 1
     4     3     4 ar
     5     3     7 ar
     6     4     5 1
     7     4     6 ar
     8     6     9 ar
     9     7     8 ar
    10     8     9 ar
    11     9    10 1
    12    11    12 ar
    13    11    17 ar
    14    12    13 ar
    15    13    14 1
    16    14    15 1
    17    14    16 2
    18    16    17 ar
    19    16    19 1
    20    17    18 1
    21    19    20 ar
    22    19    25 ar
    23    20    21 1
    24    20    22 ar
    25    22    23 ar
    26    23    24 ar
    27    24    25 ar
    28     6    26 1
    29     7    27 1
    30     8    28 1
    31    12    29 1
    32    13    30 1
    33    18    31 1
    34    18    32 1
    35    21    33 1
    36    21    34 1
    37    21    35 1
    38    22    36 1
    39    23    37 1
    40    24    38 1
    41    25    39 1
@<TRIPOS>SUBSTRUCTURE
     1 I39         1 TEMP              0 ****  ****    0 ROOT
