@<TRIPOS>MOLECULE
I39
   39    41     1     0     0
SMALL
bcc


@<TRIPOS>ATOM
      1 O10          0.0000     0.0000     0.0000 o          1 I39      -0.518100
      2 C9           1.2150     0.0000     0.0000 c          1 I39       0.658300
      3 C4           1.9530     0.0000     1.2770 ca         1 I39      -0.242600
      4 C3           1.2600     0.1080     2.4890 ca         1 I39       0.204900
      5 F8          -0.0870     0.2110     2.4920 f          1 I39      -0.104900
      6 C2           1.9580     0.1060     3.6820 ca         1 I39      -0.188000
      7 C5           3.3460    -0.1130     1.2840 ca         1 I39      -0.010000
      8 C6           4.0290    -0.1120     2.4790 ca         1 I39      -0.163000
      9 C1           3.3390     0.0000     3.6780 ca         1 I39       0.167900
     10 F7           4.0160     0.0010     4.8470 f          1 I39      -0.117900
     11 C11          1.9530    -0.0060    -1.2770 ca         1 I39      -0.312600
     12 C16          2.0570    -1.1750    -2.0440 ca         1 I39       0.055000
     13 C15          2.7540    -1.1420    -3.2330 ca         1 I39      -0.451300
     14 N14          3.3260    -0.0330    -3.6620 na         1 I39       0.875600
     15 O23          4.0300    -0.0560    -4.8910 o          1 I39      -0.530000
     16 C13          3.2620     1.1010    -2.9790 cp         1 I39      -0.391300
     17 C12          2.5680     1.1610    -1.7630 ca         1 I39       0.136600
     18 N24          2.4950     2.3480    -1.0500 nv         1 I39      -0.389200
     19 C17          3.9230     2.3170    -3.5100 cp         1 I39      -0.014000
     20 C22          5.2460     2.5960    -3.1740 ca         1 I39      -0.062300
     21 C25          6.0090     1.6620    -2.2700 c3         1 I39       0.059200
     22 C21          5.8580     3.7300    -3.6710 ca         1 I39      -0.103000
     23 C20          5.1590     4.5870    -4.5000 ca         1 I39      -0.085000
     24 C19          3.8460     4.3160    -4.8370 ca         1 I39      -0.108000
     25 C18          3.2250     3.1830    -4.3510 ca         1 I39      -0.063000
     26 H2           1.4250     0.1920     4.6210 ha         1 I39       0.142000
     27 H5           3.8880    -0.2010     0.3490 ha         1 I39       0.121000
     28 H6           5.1090    -0.1980     2.4840 ha         1 I39       0.129000
     29 H16          1.5930    -2.0940    -1.7070 ha         1 I39       0.120000
     30 H15          2.8350    -2.0450    -3.8270 h4         1 I39       0.171000
     31 HN24         1.8670     2.4280    -0.2750 hn         1 I39       0.282800
     32 HN2A         3.0710     3.1240    -1.3090 hn         1 I39       0.282800
     33 H25          5.7710     0.6360    -2.5270 hc         1 I39       0.008367
     34 H25A         5.7330     1.8500    -1.2400 hc         1 I39       0.008367
     35 H25B         7.0730     1.8270    -2.3950 hc         1 I39       0.008367
     36 H21          6.8870     3.9480    -3.4110 ha         1 I39       0.108000
     37 H20          5.6420     5.4770    -4.8870 ha         1 I39       0.102000
     38 H19          3.3050     4.9910    -5.4890 ha         1 I39       0.105000
     39 H18          2.1960     2.9720    -4.6160 ha         1 I39       0.108000
@<TRIPOS>BOND
     1     1     2 2   
     2     2     3 1   
     3     2    11 1   
     4     3     4 ar  
     5     3     7 ar  
     6     4     5 1   
     7     4     6 ar  
     8     6     9 ar  
     9     6    26 1   
    10     7     8 ar  
    11     7    27 1   
    12     8     9 ar  
    13     8    28 1   
    14     9    10 1   
    15    11    12 ar  
    16    11    17 ar  
    17    12    13 ar  
    18    12    29 1   
    19    13    14 1   
    20    13    30 1   
    21    14    15 1   
    22    14    16 2   
    23    16    17 ar  
    24    16    19 1   
    25    17    18 1   
    26    18    31 1   
    27    18    32 1   
    28    19    20 ar  
    29    19    25 ar  
    30    20    21 1   
    31    20    22 ar  
    32    21    33 1   
    33    21    34 1   
    34    21    35 1   
    35    22    23 ar  
    36    22    36 1   
    37    23    24 ar  
    38    23    37 1   
    39    24    25 ar  
    40    24    38 1   
    41    25    39 1   
@<TRIPOS>SUBSTRUCTURE
     1 I39         1 TEMP              0 ****  ****    0 ROOT
