@<TRIPOS>MOLECULE
molecule
   18    19     1     0     0
SMALL
bcc


@<TRIPOS>ATOM
      1 O            0.0000     0.0000     0.0000 o          1 I3A      -0.566100
      2 C3'          1.2450     0.0000     0.0000 c          1 I3A       0.602100
      3 C3           2.0430     0.0000     1.1930 cc         1 I3A      -0.266400
      4 C2           1.5270     0.0010     2.4680 cd         1 I3A      -0.021100
      5 N            2.5770     0.0000     3.3480 na         1 I3A      -0.171400
      6 C8           3.7710    -0.0000     2.6620 ca         1 I3A      -0.052200
      7 C9           3.4630    -0.0010     1.3000 ca         1 I3A      -0.063800
      8 C4           4.5170    -0.0020     0.3650 ca         1 I3A      -0.089000
      9 C5           5.8380    -0.0040     0.8280 ca         1 I3A      -0.145000
     10 C6           6.1160    -0.0030     2.1940 ca         1 I3A      -0.112000
     11 C7           5.0860    -0.0020     3.1380 ca         1 I3A      -0.138000
     12 H3'          1.7610    -0.0010    -0.9520 h4         1 I3A      -0.003800
     13 H2           0.4770     0.0320     2.7300 h4         1 I3A       0.191000
     14 HN           2.4890     0.0010     4.3450 hn         1 I3A       0.300700
     15 H4           4.3080    -0.0030    -0.6970 ha         1 I3A       0.135000
     16 H5           6.6540    -0.0050     0.1160 ha         1 I3A       0.133000
     17 H6           7.1460    -0.0040     2.5280 ha         1 I3A       0.133000
     18 H7           5.2990    -0.0010     4.2000 ha         1 I3A       0.134000
@<TRIPOS>BOND
     1     1     2 2
     2     2     3 1
     3     2    12 1
     4     3     4 2
     5     3     7 1
     6     4     5 1
     7     4    13 1
     8     5     6 1
     9     5    14 1
    10     6     7 ar
    11     6    11 ar
    12     7     8 ar
    13     8     9 ar
    14     8    15 1
    15     9    10 ar
    16     9    16 1
    17    10    11 ar
    18    10    17 1
    19    11    18 1
@<TRIPOS>SUBSTRUCTURE
     1 I3A         1 TEMP              0 ****  ****    0 ROOT
