@<TRIPOS>MOLECULE
I3C
   18    18     1     0     0
SMALL
bcc


@<TRIPOS>ATOM
      1 I3           0.0000     0.0000     0.0000 i          1 I3C      -0.384900
      2 I2           5.2150    -0.0020    -3.0260 i          1 I3C      -0.384900
      3 I1           5.2390    -0.0010     3.0230 i          1 I3C      -0.313900
      4 O8           1.7460    -1.0440     3.0170 o          1 I3C      -0.880050
      5 O9           1.7220     1.1740     3.0700 o          1 I3C      -0.880050
      6 C10          6.3570    -0.0020    -0.0060 c          1 I3C       0.991200
      7 N13          2.0860     0.0010    -2.4120 nv         1 I3C      -0.543200
      8 C1           2.7930     0.0000     1.2110 ca         1 I3C      -0.061600
      9 C6           2.0950     0.0000     0.0000 ca         1 I3C       0.242900
     10 C5           2.7880     0.0010    -1.2020 ca         1 I3C       0.007600
     11 C4           4.1760    -0.0010    -1.2070 ca         1 I3C       0.242900
     12 C3           4.8810    -0.0010     0.0000 ca         1 I3C      -0.061600
     13 C2           4.1880    -0.0000     1.2100 ca         1 I3C       0.279900
     14 O11          7.0290    -1.1690    -0.0090 o          1 I3C      -0.880050
     15 O12          6.9650     1.0500    -0.0100 o          1 I3C      -0.880050
     16 HN13         1.8350    -0.8660    -2.8450 hn         1 I3C       0.258800
     17 HN1A         1.8350     0.8680    -2.8450 hn         1 I3C       0.258800
     18 C7           2.0540     0.0050     2.4890 c          1 I3C       0.991200
@<TRIPOS>BOND
     1     1     9 1   
     2     2    11 1   
     3     3    13 1   
     4     4    18 1   
     5     5    18 1   
     6     6    12 1   
     7     6    14 1   
     8     6    15 1   
     9     7    10 1   
    10     7    16 1   
    11     7    17 1   
    12     8     9 ar  
    13     8    13 ar  
    14     8    18 1   
    15     9    10 ar  
    16    10    11 ar  
    17    11    12 ar  
    18    12    13 ar  
@<TRIPOS>SUBSTRUCTURE
     1 I3C         1 TEMP              0 ****  ****    0 ROOT
