@<TRIPOS>MOLECULE
I3E
   26    26     1     0     0
SMALL
bcc


@<TRIPOS>ATOM
      1 C1         -0.0900   -0.0330    0.0320 ca        1 I3E     -0.046300
      2 C2          1.3080   -0.1130    0.0150 ca        1 I3E     -0.144500
      3 C3          2.0290   -0.0910    1.2050 ca        1 I3E     -0.080000
      4 C4          1.3660    0.0090    2.4380 ca        1 I3E     -0.181600
      5 C5         -0.0310    0.0900    2.4530 ca        1 I3E     -0.080000
      6 C6         -0.7510    0.0690    1.2610 ca        1 I3E     -0.144500
      7 C7         -0.8560   -0.0480   -1.2440 c3        1 I3E     -0.044100
      8 C8         -0.8430   -1.4100   -1.8980 c3        1 I3E     -0.090100
      9 C9          2.1710    0.0270    3.6790 c         1 I3E      0.576700
     10 O9          3.4090    0.0320    3.6410 o         1 I3E     -0.536100
     11 C10         1.4180    0.0370    4.9800 c3        1 I3E     -0.176400
     12 C11         2.3300   -0.0170    6.1780 c3        1 I3E     -0.088100
     13 H2          1.8380   -0.1920   -0.9470 ha        1 I3E      0.136500
     14 H3          3.1300   -0.1510    1.1940 ha        1 I3E      0.144500
     15 H5         -0.5760    0.1720    3.4060 ha        1 I3E      0.144500
     16 H6         -1.8490    0.1350    1.2870 ha        1 I3E      0.136500
     17 H7         -0.4090    0.7070   -1.9470 hc        1 I3E      0.050200
     18 H7A        -1.9190    0.2640   -1.0570 hc        1 I3E      0.050200
     19 H8          0.2050   -1.7370   -2.1020 hc        1 I3E      0.038033
     20 H8A        -1.4000   -1.3750   -2.8650 hc        1 I3E      0.038033
     21 H8B        -1.3250   -2.1700   -1.2370 hc        1 I3E      0.038033
     22 H10         0.7190   -0.8420    4.9930 hc        1 I3E      0.064200
     23 H11         2.9440   -0.9500    6.1600 hc        1 I3E      0.043033
     24 H11A        1.7300    0.0030    7.1190 hc        1 I3E      0.043033
     25 H13         0.7940    0.9700    5.0180 hc        1 I3E      0.064200
     26 H14         3.0300    0.8540    6.1760 hc        1 I3E      0.043033
@<TRIPOS>BOND
     1    1    2 ar  
     2    1    6 ar  
     3    1    7 1   
     4    2    3 ar  
     5    2   13 1   
     6    3    4 ar  
     7    3   14 1   
     8    4    5 ar  
     9    4    9 1   
    10    5    6 ar  
    11    5   15 1   
    12    6   16 1   
    13    7    8 1   
    14    7   17 1   
    15    7   18 1   
    16    8   19 1   
    17    8   20 1   
    18    8   21 1   
    19    9   10 2   
    20    9   11 1   
    21   11   12 1   
    22   11   22 1   
    23   11   25 1   
    24   12   23 1   
    25   12   24 1   
    26   12   26 1   
@<TRIPOS>SUBSTRUCTURE
     1 I3E         1 TEMP              0 ****  ****    0 ROOT
