@<TRIPOS>MOLECULE
molecule
   26    26     1     0     0
SMALL
bcc


@<TRIPOS>ATOM
      1 C1           0.0000     0.0000     0.0000 ca         1 I3E      -0.051300
      2 C2           1.3840     0.0000     0.0000 ca         1 I3E      -0.142500
      3 C3           2.0780     0.0000     1.1920 ca         1 I3E      -0.076500
      4 C4           1.3780     0.0000     2.4040 ca         1 I3E      -0.185600
      5 C5          -0.0210     0.0010     2.3950 ca         1 I3E      -0.076500
      6 C6          -0.6990     0.0060     1.1950 ca         1 I3E      -0.142500
      7 C7          -0.7500    -0.0000    -1.3070 c3         1 I3E      -0.044100
      8 C8          -1.0040    -1.4430    -1.7490 c3         1 I3E      -0.087100
      9 C9           2.1100    -0.0000     3.6790 c          1 I3E       0.576700
     10 O9           3.3230    -0.0010     3.6830 o          1 I3E      -0.529100
     11 C10          1.3530     0.0000     4.9820 c3         1 I3E      -0.180400
     12 C11          2.3440     0.0000     6.1490 c3         1 I3E      -0.082100
     13 H2           1.9230    -0.0020    -0.9390 ha         1 I3E       0.135000
     14 H3           3.1610    -0.0000     1.1900 ha         1 I3E       0.143000
     15 H5          -0.5690     0.0030     3.3290 ha         1 I3E       0.143000
     16 H6          -1.7830     0.0060     1.1870 ha         1 I3E       0.135000
     17 H7          -1.6960     0.5110    -1.1810 hc         1 I3E       0.050200
     18 H7A         -0.1620     0.5100    -2.0610 hc         1 I3E       0.050200
     19 H8          -1.5400    -1.4430    -2.6910 hc         1 I3E       0.037700
     20 H8A         -1.5950    -1.9520    -0.9980 hc         1 I3E       0.037700
     21 H8B         -0.0570    -1.9550    -1.8720 hc         1 I3E       0.037700
     22 H10          0.7310     0.8850     5.0370 hc         1 I3E       0.063200
     23 H11          2.9670    -0.8850     6.0940 hc         1 I3E       0.042367
     24 H11A         1.7990     0.0010     7.0850 hc         1 I3E       0.042367
     25 H13          0.7300    -0.8840     5.0380 hc         1 I3E       0.063200
     26 H14          2.9670     0.8840     6.0940 hc         1 I3E       0.042367
@<TRIPOS>BOND
     1     1     7 1
     2     2     1 ar
     3     2    13 1
     4     3     2 ar
     5     3    14 1
     6     4     3 ar
     7     4     5 ar
     8     5     6 ar
     9     5    15 1
    10     6     1 ar
    11     6    16 1
    12     7     8 1
    13     7    17 1
    14     7    18 1
    15     8    19 1
    16     8    20 1
    17     8    21 1
    18     9     4 1
    19    10     9 2
    20    11     9 1
    21    11    22 1
    22    12    11 1
    23    12    23 1
    24    12    24 1
    25    11    25 1
    26    12    26 1
@<TRIPOS>SUBSTRUCTURE
     1 I3E         1 TEMP              0 ****  ****    0 ROOT
