@<TRIPOS>MOLECULE
I3K
   50    54     1     0     0
SMALL
bcc


@<TRIPOS>ATOM
      1 C19         0.5880   -0.6170   -0.5750 c3        1 I3K      0.107700
      2 O18         1.9610   -0.4140   -0.2580 os        1 I3K     -0.301900
      3 C13         2.2560   -0.2520    1.0780 ca        1 I3K      0.134100
      4 C14         1.3340   -0.2710    2.0990 ca        1 I3K     -0.249300
      5 C12         3.6550   -0.0510    1.3570 ca        1 I3K      0.110100
      6 O16         4.4680   -0.0550    0.2440 os        1 I3K     -0.301900
      7 C17         5.8580    0.1320    0.4930 c3        1 I3K      0.108700
      8 C15         4.0780    0.1250    2.6540 ca        1 I3K     -0.163000
      9 C6          3.1410    0.1080    3.7170 ca        1 I3K     -0.151300
     10 C7          1.7520   -0.0910    3.4570 ca        1 I3K      0.424600
     11 N8          0.8050   -0.1170    4.4640 nb        1 I3K     -0.677000
     12 C9          1.2230    0.0520    5.7070 ca        1 I3K      0.437200
     13 C10         2.5810    0.2610    6.0880 ca        1 I3K     -0.327300
     14 C11         3.5290    0.2880    5.0860 ca        1 I3K      0.166100
     15 O20         4.8830    0.5120    5.2810 os        1 I3K     -0.249200
     16 C21         5.3350    0.5200    6.6040 ca        1 I3K      0.080100
     17 C22         5.2740   -0.6480    7.3750 ca        1 I3K     -0.102000
     18 C24         5.9520    1.7080    7.0360 ca        1 I3K     -0.124000
     19 C23         6.5620    1.7720    8.2900 ca        1 I3K     -0.093000
     20 C1          6.5060    0.6220    9.0610 ca        1 I3K      0.012100
     21 O5          7.0270    0.4210   10.3420 os        1 I3K     -0.313700
     22 C2          5.8720   -0.5970    8.6350 ca        1 I3K      0.101400
     23 N3          6.0040   -1.5650    9.6520 nc        1 I3K     -0.609100
     24 C4          6.6770   -0.9400   10.6430 cd        1 I3K      0.743500
     25 N25         6.9840   -1.4180   11.9090 nh        1 I3K     -0.655600
     26 C26         8.0270   -0.8790   12.6970 ca        1 I3K      0.126600
     27 C27         8.1810    0.5110   12.8780 ca        1 I3K     -0.140000
     28 C28         9.1660    1.0020   13.7290 ca        1 I3K     -0.103500
     29 C29        10.0040    0.1200   14.4180 ca        1 I3K      0.004400
     30 CL3        11.2010    0.7260   15.4580 cl        1 I3K     -0.084400
     31 C30         9.8580   -1.2610   14.2520 ca        1 I3K     -0.103500
     32 C31         8.8830   -1.7590   13.3970 ca        1 I3K     -0.140000
     33 H19        -0.0240    0.2650   -0.2640 h1        1 I3K      0.047700
     34 H19A        0.5950   -0.7210   -1.6900 h1        1 I3K      0.047700
     35 H19B        0.2050   -1.5490   -0.0930 h1        1 I3K      0.047700
     36 H14         0.2630   -0.4250    1.8970 ha        1 I3K      0.160000
     37 H17         6.3100    0.0880   -0.5310 h1        1 I3K      0.046700
     38 H17A        6.0450    1.1270    0.9650 h1        1 I3K      0.046700
     39 H17B        6.2580   -0.6880    1.1370 h1        1 I3K      0.046700
     40 H15         5.1400    0.2810    2.8990 ha        1 I3K      0.158000
     41 H9          0.4420    0.0260    6.4900 h4        1 I3K      0.024100
     42 H10         2.8430    0.3910    7.1450 ha        1 I3K      0.158000
     43 H22         4.7800   -1.5550    7.0020 ha        1 I3K      0.171000
     44 H24         5.9600    2.5830    6.3700 ha        1 I3K      0.158000
     45 H23         7.0560    2.6850    8.6460 ha        1 I3K      0.158000
     46 HN25        6.8530   -2.4080   12.0020 hn        1 I3K      0.453800
     47 H27         7.5260    1.2220   12.3490 ha        1 I3K      0.151500
     48 H28         9.2770    2.0900   13.8600 ha        1 I3K      0.152500
     49 H30        10.5170   -1.9580   14.7940 ha        1 I3K      0.152500
     50 H31         8.7860   -2.8500   13.2780 ha        1 I3K      0.151500
@<TRIPOS>BOND
     1    1    2 1
     2    1   33 1
     3    1   34 1
     4    1   35 1
     5    2    3 1
     6    3    4 ar
     7    3    5 ar
     8    4   10 ar
     9    4   36 1
    10    5    6 1
    11    5    8 ar
    12    6    7 1
    13    7   37 1
    14    7   38 1
    15    7   39 1
    16    8    9 ar
    17    8   40 1
    18    9   10 ar
    19    9   14 ar
    20   10   11 ar
    21   11   12 ar
    22   12   13 ar
    23   12   41 1
    24   13   14 ar
    25   13   42 1
    26   14   15 1
    27   15   16 1
    28   16   17 ar
    29   16   18 ar
    30   17   22 ar
    31   17   43 1
    32   18   19 ar
    33   18   44 1
    34   19   20 ar
    35   19   45 1
    36   20   21 1
    37   20   22 ar
    38   21   24 1
    39   22   23 1
    40   23   24 2
    41   24   25 1
    42   25   26 1
    43   25   46 1
    44   26   27 ar
    45   26   32 ar
    46   27   28 ar
    47   27   47 1
    48   28   29 ar
    49   28   48 1
    50   29   30 1
    51   29   31 ar
    52   31   32 ar
    53   31   49 1
    54   32   50 1
@<TRIPOS>SUBSTRUCTURE
     1 I3K         1 TEMP              0 ****  ****    0 ROOT
