@<TRIPOS>MOLECULE
I3M
    3     2     1     0     0
SMALL
bcc


@<TRIPOS>ATOM
      1 I01        -2.6150    0.0030    0.0010 i         1 I3M     -0.517000
      2 I02        -0.0000    0.0000    0.0000 i         1 I3M      0.035000
      3 I03         2.6150   -0.0030   -0.0010 i         1 I3M     -0.517000
@<TRIPOS>BOND
     1    1    2 1   
     2    2    3 1   
@<TRIPOS>SUBSTRUCTURE
     1 I3M         1 TEMP              0 ****  ****    0 ROOT
