@<TRIPOS>MOLECULE
I3N
   41    43     1     0     0
SMALL
bcc


@<TRIPOS>ATOM
      1 C1          1.5620   -0.3570   -0.6890 c3        1 I3N      0.116700
      2 O2          0.7700    0.1520    0.3760 os        1 I3N     -0.347900
      3 C3          1.3920    0.1710    1.6200 ca        1 I3N      0.075100
      4 C4          2.7720    0.0510    1.7950 ca        1 I3N     -0.142000
      5 C5          3.2740    0.1030    3.0910 ca        1 I3N     -0.046800
      6 C6          2.3780    0.2820    4.2100 ca        1 I3N     -0.074200
      7 C7          0.9990    0.4090    4.0070 ca        1 I3N     -0.123000
      8 C8          0.5120    0.3500    2.7080 ca        1 I3N     -0.153000
      9 N9          3.1460    0.3720    5.3920 na        1 I3N     -0.077400
     10 C10         4.5050    0.1230    5.0220 cc        1 I3N     -0.080300
     11 C11         4.6190    0.0090    3.6370 cd        1 I3N     -0.054400
     12 C12         5.8480   -0.1570    2.8560 c3        1 I3N     -0.152200
     13 C13         6.4650   -1.5730    2.9790 c         1 I3N      0.919600
     14 O14         6.3120   -2.3660    2.0110 o         1 I3N     -0.840800
     15 O15         7.1250   -1.8430    4.0250 o         1 I3N     -0.840800
     16 C16         5.6100    0.0690    5.9970 c3        1 I3N     -0.064900
     17 C17         2.6180    0.0350    6.6820 c3        1 I3N      0.086600
     18 C18         2.3420   -1.4130    6.9810 ca        1 I3N     -0.113300
     19 C19         3.1640   -2.4390    6.5030 ca        1 I3N     -0.116500
     20 C20         2.8910   -3.7660    6.8370 ca        1 I3N     -0.134000
     21 C21         1.8050   -4.0770    7.6540 ca        1 I3N     -0.139000
     22 C22         0.9840   -3.0560    8.1350 ca        1 I3N     -0.134000
     23 C23         1.2500   -1.7310    7.7980 ca        1 I3N     -0.116500
     24 H11         2.0070   -1.3470   -0.4260 h1        1 I3N      0.038033
     25 H12         0.8370   -0.4600   -1.5350 h1        1 I3N      0.038033
     26 H13         2.3680    0.3710   -0.9540 h1        1 I3N      0.038033
     27 H4          3.4600   -0.1010    0.9520 ha        1 I3N      0.153000
     28 H7          0.3110    0.5430    4.8520 ha        1 I3N      0.121000
     29 H8         -0.5650    0.4370    2.5110 ha        1 I3N      0.129000
     30 H121        6.6190    0.5780    3.2060 hc        1 I3N      0.035700
     31 H122        5.6370    0.0390    1.7730 hc        1 I3N      0.035700
     32 H161        5.9080    1.1010    6.3090 hc        1 I3N      0.061367
     33 H162        5.3290   -0.5110    6.9110 hc        1 I3N      0.061367
     34 H163        6.4870   -0.4440    5.5050 hc        1 I3N      0.061367
     35 H171        1.6590    0.6190    6.8070 h1        1 I3N      0.054700
     36 H172        3.3580    0.4070    7.4530 h1        1 I3N      0.054700
     37 H19         4.0280   -2.2080    5.8530 ha        1 I3N      0.149000
     38 H20         3.5400   -4.5650    6.4480 ha        1 I3N      0.128500
     39 H21         1.5920   -5.1230    7.9150 ha        1 I3N      0.119000
     40 H22         0.1250   -3.2970    8.7760 ha        1 I3N      0.128500
     41 H23         0.5950   -0.9310    8.1740 ha        1 I3N      0.149000
@<TRIPOS>BOND
     1    1    2 1   
     2    1   24 1   
     3    1   25 1   
     4    1   26 1   
     5    2    3 1   
     6    3    4 ar  
     7    3    8 ar  
     8    4    5 ar  
     9    4   27 1   
    10    5    6 ar  
    11    5   11 1   
    12    6    7 ar  
    13    6    9 1   
    14    7    8 ar  
    15    7   28 1   
    16    8   29 1   
    17    9   10 1   
    18    9   17 1   
    19   10   11 2   
    20   10   16 1   
    21   11   12 1   
    22   12   13 1   
    23   12   30 1   
    24   12   31 1   
    25   13   14 1   
    26   13   15 1   
    27   16   32 1   
    28   16   33 1   
    29   16   34 1   
    30   17   18 1   
    31   17   35 1   
    32   17   36 1   
    33   18   19 ar  
    34   18   23 ar  
    35   19   20 ar  
    36   19   37 1   
    37   20   21 ar  
    38   20   38 1   
    39   21   22 ar  
    40   21   39 1   
    41   22   23 ar  
    42   22   40 1   
    43   23   41 1   
@<TRIPOS>SUBSTRUCTURE
     1 I3N         1 TEMP              0 ****  ****    0 ROOT
