@<TRIPOS>MOLECULE
molecule
   41    43     1     0     0
SMALL
bcc


@<TRIPOS>ATOM
      1 C1           0.0000     0.0000     0.0000 c3         1 I3N       0.113700
      2 O2           1.4290     0.0000     0.0000 os         1 I3N      -0.304900
      3 C3           1.8220     0.0000     1.3010 ca         1 I3N       0.056100
      4 C4           3.1680    -0.0050     1.6130 ca         1 I3N      -0.081000
      5 C5           3.5640    -0.0010     2.9520 ca         1 I3N      -0.046800
      6 C6           2.5970    -0.0000     3.9720 ca         1 I3N      -0.055200
      7 C7           1.2470    -0.0000     3.6370 ca         1 I3N      -0.129000
      8 C8           0.8670    -0.0000     2.3140 ca         1 I3N      -0.208000
      9 N9           3.2740     0.0000     5.1730 na         1 I3N      -0.078400
     10 C10          4.6230     0.0000     4.9450 cc         1 I3N      -0.070300
     11 C11          4.8640     0.0000     3.6260 cd         1 I3N      -0.061400
     12 C12          6.2170     0.0000     2.9630 c3         1 I3N      -0.123200
     13 C13          6.6690    -1.4200     2.7430 c          1 I3N       0.890600
     14 O14          7.8550    -1.6640     2.1620 o          1 I3N      -0.845300
     15 O15          5.9650    -2.3380     3.0880 o          1 I3N      -0.845300
     16 C16          5.6800     0.0010     6.0190 c3         1 I3N      -0.019900
     17 C17          2.6440    -0.0000     6.4950 c3         1 I3N       0.103600
     18 C18          2.4280    -1.4210     6.9490 ca         1 I3N      -0.102300
     19 C19          3.4080    -2.0720     7.6720 ca         1 I3N      -0.104500
     20 C20          3.2100    -3.3750     8.0870 ca         1 I3N      -0.129000
     21 C21          2.0320    -4.0270     7.7810 ca         1 I3N      -0.127000
     22 C22          1.0490    -3.3750     7.0580 ca         1 I3N      -0.129000
     23 C23          1.2460    -2.0700     6.6460 ca         1 I3N      -0.104500
     24 H11         -0.3610     0.8840     0.5110 h1         1 I3N       0.031367
     25 H12         -0.3610    -0.8850     0.5110 h1         1 I3N       0.031367
     26 H13         -0.3610     0.0000    -1.0210 h1         1 I3N       0.031367
     27 H4           3.9060     0.1160     0.8290 ha         1 I3N       0.150000
     28 H7           0.4950    -0.0000     4.4170 ha         1 I3N       0.106000
     29 H8          -0.1860    -0.0000     2.0590 ha         1 I3N       0.122000
     30 H121         6.9300     0.5120     3.5980 hc         1 I3N       0.036700
     31 H122         6.1520     0.5100     2.0100 hc         1 I3N       0.036700
     32 H161         5.2770     0.4410     6.9230 hc         1 I3N       0.041700
     33 H162         6.5330     0.5790     5.6850 hc         1 I3N       0.041700
     34 H163         5.9910    -1.0170     6.2200 hc         1 I3N       0.041700
     35 H171         3.2870     0.5110     7.2020 h1         1 I3N       0.051700
     36 H172         1.6900     0.5100     6.4400 h1         1 I3N       0.051700
     37 H19          4.3330    -1.5610     7.9130 ha         1 I3N       0.130500
     38 H20          3.9790    -3.8860     8.6540 ha         1 I3N       0.123000
     39 H21          1.8770    -5.0490     8.1050 ha         1 I3N       0.120000
     40 H22          0.1240    -3.8850     6.8190 ha         1 I3N       0.123000
     41 H23          0.4760    -1.5590     6.0800 ha         1 I3N       0.130500
@<TRIPOS>BOND
     1     1     2 1
     2     1    24 1
     3     1    25 1
     4     1    26 1
     5     2     3 1
     6     3     4 ar
     7     3     8 ar
     8     4     5 ar
     9     4    27 1
    10     5     6 ar
    11     5    11 1
    12     6     7 ar
    13     6     9 1
    14     7     8 ar
    15     7    28 1
    16     8    29 1
    17     9    10 1
    18     9    17 1
    19    10    11 2
    20    10    16 1
    21    11    12 1
    22    12    13 1
    23    12    30 1
    24    12    31 1
    25    13    14 1
    26    13    15 1
    27    16    32 1
    28    16    33 1
    29    16    34 1
    30    17    18 1
    31    17    35 1
    32    17    36 1
    33    18    19 ar
    34    18    23 ar
    35    19    20 ar
    36    19    37 1
    37    20    21 ar
    38    20    38 1
    39    21    22 ar
    40    21    39 1
    41    22    23 ar
    42    22    40 1
    43    23    41 1
@<TRIPOS>SUBSTRUCTURE
     1 I3N         1 TEMP              0 ****  ****    0 ROOT
