@<TRIPOS>MOLECULE
I3P
   33    33     1     0     0
SMALL
bcc


@<TRIPOS>ATOM
      1 C1         -0.1900    0.1550    0.0980 c3        1 I3P      0.201100
      2 C2          1.3620    0.1070    0.0680 c3        1 I3P      0.109100
      3 C3          1.9480   -0.0220    1.4830 c3        1 I3P      0.110100
      4 C4          1.5520   -1.3740    2.1690 c3        1 I3P      0.211100
      5 C5          0.0070   -1.1670    2.4490 c3        1 I3P      0.198100
      6 C6         -0.6870   -0.9990    1.0300 c3        1 I3P      0.102100
      7 O1         -0.6670   -0.0110   -1.2010 os        1 I3P     -0.603200
      8 O2          1.8460   -0.9350   -0.7710 oh        1 I3P     -0.634800
      9 O3          3.3340    0.2630    1.4140 oh        1 I3P     -0.703800
     10 O4          2.3480   -1.5970    3.2800 os        1 I3P     -0.584200
     11 O5         -0.6010   -2.2150    3.1190 os        1 I3P     -0.585200
     12 O6         -2.0840   -0.7990    1.1690 oh        1 I3P     -0.660800
     13 P1         -1.1850    1.2920   -2.1890 p5        1 I3P      1.351900
     14 O11        -1.0800    2.5710   -1.3910 o         1 I3P     -0.965833
     15 O12        -0.2250    1.2450   -3.3650 o         1 I3P     -0.965833
     16 O13        -2.5930    0.9630   -2.6440 o         1 I3P     -0.965833
     17 P4          3.6710   -2.6890    3.2880 p5        1 I3P      1.353900
     18 O41         4.7890   -1.8380    2.6970 o         1 I3P     -0.957833
     19 O42         3.9660   -2.9970    4.7420 o         1 I3P     -0.957833
     20 O43         3.3790   -3.9090    2.4500 o         1 I3P     -0.957833
     21 P5         -1.6760   -1.9840    4.4390 p5        1 I3P      1.348900
     22 O51        -3.0180   -1.9350    3.7250 o         1 I3P     -0.958167
     23 O52        -1.5870   -3.2170    5.3150 o         1 I3P     -0.958167
     24 O53        -1.3570   -0.6930    5.1550 o         1 I3P     -0.958167
     25 H1         -0.5270    1.1500    0.4970 h1        1 I3P      0.041700
     26 H2          1.7530    1.0670   -0.3820 h1        1 I3P      0.006700
     27 H3          1.5080    0.8220    2.0960 h1        1 I3P      0.005700
     28 H4          1.6900   -2.2200    1.4400 h1        1 I3P      0.033700
     29 H5         -0.1400   -0.2240    3.0480 h1        1 I3P      0.021700
     30 H6         -0.5270   -1.9680    0.4760 h1        1 I3P     -0.000300
     31 HO2         1.0750   -1.2830   -1.2400 ho        1 I3P      0.406000
     32 HO3         3.8070   -0.4920    1.8280 ho        1 I3P      0.469000
     33 HO6        -2.3570   -1.2420    2.0000 ho        1 I3P      0.447000
@<TRIPOS>BOND
     1    1    2 1   
     2    1    6 1   
     3    1    7 1   
     4    1   25 1   
     5    2    3 1   
     6    2    8 1   
     7    2   26 1   
     8    3    4 1   
     9    3    9 1   
    10    3   27 1   
    11    4    5 1   
    12    4   10 1   
    13    4   28 1   
    14    5    6 1   
    15    5   11 1   
    16    5   29 1   
    17    6   12 1   
    18    6   30 1   
    19    7   13 1   
    20    8   31 1   
    21    9   32 1   
    22   10   17 1   
    23   11   21 1   
    24   12   33 1   
    25   13   14 1   
    26   13   15 1   
    27   13   16 1   
    28   17   18 1   
    29   17   19 1   
    30   17   20 1   
    31   21   22 1   
    32   21   23 1   
    33   21   24 1   
@<TRIPOS>SUBSTRUCTURE
     1 I3P         1 TEMP              0 ****  ****    0 ROOT
