@<TRIPOS>MOLECULE
molecule
   33    33     1     0     0
SMALL
bcc


@<TRIPOS>ATOM
      1 C1           0.0000     0.0000     0.0000 c3         1 I3P       0.152100
      2 C2           1.5290     0.0000     0.0000 c3         1 I3P       0.115100
      3 C3           2.0380     0.0000     1.4420 c3         1 I3P       0.110100
      4 C4           1.5290    -1.2500     2.1620 c3         1 I3P       0.176100
      5 C5           0.0000    -1.2500     2.1620 c3         1 I3P       0.166100
      6 C6          -0.5090    -1.2500     0.7200 c3         1 I3P       0.129100
      7 O1          -0.4760    -0.0000    -1.3470 os         1 I3P      -0.572200
      8 O2           2.0070    -1.1650    -0.6730 oh         1 I3P      -0.572800
      9 O3           3.4680     0.0010     1.4430 oh         1 I3P      -0.566800
     10 O4           2.0050    -1.2500     3.5100 os         1 I3P      -0.493200
     11 O5          -0.4760    -2.4170     2.8350 os         1 I3P      -0.494200
     12 O6          -1.9380    -1.2510     0.7190 oh         1 I3P      -0.511800
     13 P1          -1.3590     1.3330    -1.5300 p5         1 I3P       1.196900
     14 O11         -0.5160     2.5220    -1.2700 o          1 I3P      -0.942500
     15 O12         -1.9300     1.3990    -3.0330 o          1 I3P      -0.942500
     16 O13         -2.5860     1.3100    -0.4900 o          1 I3P      -0.942500
     17 P4           2.8870    -2.5830     3.6920 p5         1 I3P       1.229900
     18 O41          4.0170    -2.5620     2.7370 o          1 I3P      -0.955500
     19 O42          3.4590    -2.6490     5.1960 o          1 I3P      -0.955500
     20 O43          1.9700    -3.8760     3.4100 o          1 I3P      -0.955500
     21 P5          -1.3590    -1.9090     4.0810 p5         1 I3P       1.220900
     22 O51         -2.4880    -1.0920     3.5850 o          1 I3P      -0.949500
     23 O52         -1.9290    -3.1790     4.8900 o          1 I3P      -0.949500
     24 O53         -0.4410    -1.0190     5.0600 o          1 I3P      -0.949500
     25 H1          -0.3590     0.8830     0.5150 h1         1 I3P       0.091700
     26 H2           1.8880     0.8870    -0.5070 h1         1 I3P      -0.006300
     27 H3           1.6710     0.8830     1.9520 h1         1 I3P       0.030700
     28 H4           1.8890    -2.1320     1.6470 h1         1 I3P       0.076700
     29 H5          -0.3590    -0.3630     2.6700 h1         1 I3P       0.074700
     30 H6          -0.1420    -2.1320     0.2100 h1         1 I3P       0.011700
     31 HO2          2.5040    -0.9090    -1.4320 ho         1 I3P       0.332000
     32 HO3          3.7810     0.8770     1.5980 ho         1 I3P       0.314000
     33 HO6         -2.2510    -2.0230     0.2780 ho         1 I3P       0.331000
@<TRIPOS>BOND
     1     1     2 1
     2     1     6 1
     3     1     7 1
     4     1    25 1
     5     2     3 1
     6     2     8 1
     7     2    26 1
     8     3     4 1
     9     3     9 1
    10     3    27 1
    11     4     5 1
    12     4    10 1
    13     4    28 1
    14     5     6 1
    15     5    11 1
    16     5    29 1
    17     6    12 1
    18     6    30 1
    19     7    13 1
    20     8    31 1
    21     9    32 1
    22    10    17 1
    23    11    21 1
    24    12    33 1
    25    13    14 1
    26    13    15 1
    27    13    16 1
    28    17    18 1
    29    17    19 1
    30    17    20 1
    31    21    22 1
    32    21    23 1
    33    21    24 1
@<TRIPOS>SUBSTRUCTURE
     1 I3P         1 TEMP              0 ****  ****    0 ROOT
