@<TRIPOS>MOLECULE
I3S
   33    33     1     0     0
SMALL
bcc


@<TRIPOS>ATOM
      1 O11        -0.0590    0.2440   -0.0710 o         1 I3S     -0.962167
      2 P3          1.3190   -0.0050    0.5100 p5        1 I3S      1.347900
      3 O12         1.2020   -0.8150    1.7870 o         1 I3S     -0.962167
      4 O10         2.1460    1.2510    0.6650 o         1 I3S     -0.962167
      5 O3          2.1400   -1.0650   -0.5760 os        1 I3S     -0.585200
      6 C3          3.4960   -0.9530   -0.8360 c3        1 I3S      0.192100
      7 C2          4.2480   -2.0410    0.0400 c3        1 I3S      0.093100
      8 O2          3.7170   -3.3300   -0.2640 oh        1 I3S     -0.638800
      9 C1          5.7990   -2.0890   -0.0860 c3        1 I3S      0.208100
     10 O1          6.3510   -3.1620    0.6070 os        1 I3S     -0.599200
     11 P1          7.7510   -3.0720    1.5670 p5        1 I3S      1.345900
     12 OP2         7.7710   -1.7650    2.3220 o         1 I3S     -0.961167
     13 OP3         7.6760   -4.2890    2.4700 o         1 I3S     -0.961167
     14 OP1         8.8830   -3.1880    0.5590 o         1 I3S     -0.961167
     15 C6          6.1390   -2.1750   -1.5960 c3        1 I3S      0.113100
     16 O6          7.5410   -2.0940   -1.8340 oh        1 I3S     -0.678800
     17 C5          5.4440   -1.0340   -2.3630 c3        1 I3S      0.117100
     18 O5          6.0220   -0.9530   -3.6540 oh        1 I3S     -0.684800
     19 C4          3.8840   -1.2280   -2.3450 c3        1 I3S      0.198100
     20 O4          3.2970   -0.3960   -3.2850 os        1 I3S     -0.585200
     21 P4          2.7150   -0.9590   -4.7980 p5        1 I3S      1.350900
     22 OP5         1.6580    0.0190   -5.2650 o         1 I3S     -0.957833
     23 OP6         3.9610   -0.8390   -5.6680 o         1 I3S     -0.957833
     24 OP4         2.2390   -2.3870   -4.6890 o         1 I3S     -0.957833
     25 H3          3.8510    0.0700   -0.5320 h1        1 I3S      0.035700
     26 H2          4.0190   -1.8400    1.1240 h1        1 I3S      0.033700
     27 HO2         2.8130   -3.1650   -0.5700 ho        1 I3S      0.405000
     28 H1          6.2150   -1.1290    0.3360 h1        1 I3S      0.019700
     29 H6          5.7820   -3.1670   -1.9900 h1        1 I3S      0.022700
     30 HO6         7.9720   -2.4900   -1.0480 ho        1 I3S      0.442000
     31 H5          5.6870   -0.0560   -1.8550 h1        1 I3S      0.003700
     32 HO5         5.2840   -0.8830   -4.2980 ho        1 I3S      0.457000
     33 H4          3.6320   -2.2970   -2.5960 h1        1 I3S      0.029700
@<TRIPOS>BOND
     1    1    2 1   
     2    2    3 1   
     3    2    4 1   
     4    2    5 1   
     5    5    6 1   
     6    6    7 1   
     7    6   19 1   
     8    6   25 1   
     9    7    8 1   
    10    7    9 1   
    11    7   26 1   
    12    8   27 1   
    13    9   10 1   
    14    9   15 1   
    15    9   28 1   
    16   10   11 1   
    17   11   12 1   
    18   11   13 1   
    19   11   14 1   
    20   15   16 1   
    21   15   17 1   
    22   15   29 1   
    23   16   30 1   
    24   17   18 1   
    25   17   19 1   
    26   17   31 1   
    27   18   32 1   
    28   19   20 1   
    29   19   33 1   
    30   20   21 1   
    31   21   22 1   
    32   21   23 1   
    33   21   24 1   
@<TRIPOS>SUBSTRUCTURE
     1 I3S         1 TEMP              0 ****  ****    0 ROOT
