@<TRIPOS>MOLECULE
molecule
   33    33     1     0     0
SMALL
bcc


@<TRIPOS>ATOM
      1 O11          0.0000     0.0000     0.0000 o          1 I3S      -0.949167
      2 P3           1.6100     0.0000     0.0000 p5         1 I3S       1.214900
      3 O12          2.1470     0.0000     1.5180 o          1 I3S      -0.949167
      4 O10          2.1030     1.2090    -0.6980 o          1 I3S      -0.949167
      5 O3           2.1480    -1.3150    -0.7590 os         1 I3S      -0.497200
      6 C3           3.5700    -1.1980    -0.8300 c3         1 I3S       0.169100
      7 C2           4.2150    -2.3800    -0.1030 c3         1 I3S       0.118100
      8 O2           3.8050    -3.6010    -0.7230 oh         1 I3S      -0.602800
      9 C1           5.7380    -2.2550    -0.1800 c3         1 I3S       0.161100
     10 O1           6.3410    -3.3600     0.4990 os         1 I3S      -0.570200
     11 P1           7.2340    -2.7440     1.6870 p5         1 I3S       1.204900
     12 OP2          6.3930    -1.8740     2.5380 o          1 I3S      -0.944500
     13 OP3          7.8420    -3.9400     2.5770 o          1 I3S      -0.944500
     14 OP1          8.4390    -1.8780     1.0590 o          1 I3S      -0.944500
     15 C6           6.1770    -2.2560    -1.6460 c3         1 I3S       0.112100
     16 O6           7.6000    -2.1390    -1.7170 oh         1 I3S      -0.583800
     17 C5           5.5320    -1.0730    -2.3710 c3         1 I3S       0.108100
     18 O5           5.9420    -1.0740    -3.7400 oh         1 I3S      -0.576800
     19 C4           4.0090    -1.1980    -2.2960 c3         1 I3S       0.172100
     20 O4           3.4070    -0.0940    -2.9740 os         1 I3S      -0.503200
     21 P4           2.5120    -0.7100    -4.1620 p5         1 I3S       1.232900
     22 OP5          1.6970     0.4730    -4.8890 o          1 I3S      -0.955167
     23 OP6          3.4690    -1.4390    -5.2330 o          1 I3S      -0.955167
     24 OP4          1.5580    -1.6940    -3.6030 o          1 I3S      -0.955167
     25 H3           3.8850    -0.2740    -0.3610 h1         1 I3S       0.074700
     26 H2           3.9060    -2.3760     0.9350 h1         1 I3S       0.071700
     27 HO2          3.3980    -4.1590    -0.0810 ho         1 I3S       0.346000
     28 H1           6.0460    -1.3280     0.2860 h1         1 I3S       0.091700
     29 H6           5.8620    -3.1800    -2.1150 h1         1 I3S       0.033700
     30 HO6          7.9390    -2.7900    -2.3080 ho         1 I3S       0.330000
     31 H5           5.8400    -0.1490    -1.8970 h1         1 I3S       0.030700
     32 HO5          6.5380    -0.3580    -3.8900 ho         1 I3S       0.331000
     33 H4           3.7010    -2.1260    -2.7630 h1         1 I3S       0.078700
@<TRIPOS>BOND
     1     1     2 1
     2     2     3 1
     3     2     4 1
     4     2     5 1
     5     5     6 1
     6     6     7 1
     7     6    19 1
     8     6    25 1
     9     7     8 1
    10     7     9 1
    11     7    26 1
    12     8    27 1
    13     9    10 1
    14     9    15 1
    15     9    28 1
    16    10    11 1
    17    11    12 1
    18    11    13 1
    19    11    14 1
    20    15    16 1
    21    15    17 1
    22    15    29 1
    23    16    30 1
    24    17    18 1
    25    17    19 1
    26    17    31 1
    27    18    32 1
    28    19    20 1
    29    19    33 1
    30    20    21 1
    31    21    22 1
    32    21    23 1
    33    21    24 1
@<TRIPOS>SUBSTRUCTURE
     1 I3S         1 TEMP              0 ****  ****    0 ROOT
