@<TRIPOS>MOLECULE
molecule
   42    45     1     0     0
SMALL
bcc


@<TRIPOS>ATOM
      1 C1           0.0000     0.0000     0.0000 c3         1 I40      -0.124700
      2 C2           1.5260     0.0000     0.0000 c3         1 I40      -0.084400
      3 C3           2.0130     0.0000     1.4540 c3         1 I40      -0.086400
      4 C4           1.6970     1.3630     2.0650 c3         1 I40      -0.020100
      5 C5          -0.2880     2.7360     2.6230 ca         1 I40       0.151600
      6 C6          -2.2540     4.1020     3.1750 ca         1 I40      -0.118000
      7 C7          -3.5580     4.4170     2.9440 ca         1 I40      -0.126000
      8 C8          -4.2890     3.7510     1.9630 ca         1 I40      -0.122000
      9 C9          -3.7220     2.7700     1.2110 ca         1 I40      -0.162300
     10 N1          -1.7930     1.4590     0.7020 nb         1 I40      -0.698000
     11 C10         -0.5310     1.1050     0.8800 ca         1 I40       0.455600
     12 C11          0.2540     1.7260     1.8340 ca         1 I40      -0.182600
     13 C12         -1.6400     3.0920     2.4230 ca         1 I40      -0.188300
     14 C13         -2.3780     2.4170     1.4210 ca         1 I40       0.431600
     15 N2           0.4790     3.3740     3.5860 nu         1 I40      -0.793600
     16 I1           4.9940     2.3240     7.5460 i          1 I40      -0.167900
     17 C14          0.1840     2.7140     4.8650 c3         1 I40       0.247100
     18 C15          1.0800     3.2750     5.9370 ca         1 I40      -0.099300
     19 C16          2.3110     2.6950     6.1820 ca         1 I40      -0.076000
     20 C17          3.1320     3.2070     7.1700 ca         1 I40       0.052900
     21 C18          2.7250     4.3030     7.9070 ca         1 I40      -0.094000
     22 C19          1.4960     4.8850     7.6590 ca         1 I40      -0.130000
     23 C20          0.6740     4.3710     6.6740 ca         1 I40      -0.109000
     24 H12         -0.3560     0.1490    -1.0120 hc         1 I40       0.064200
     25 H11         -0.3560    -0.9530     0.3720 hc         1 I40       0.064200
     26 H22          1.8900    -0.8870    -0.5050 hc         1 I40       0.047200
     27 H21          1.8900     0.8870    -0.5050 hc         1 I40       0.047200
     28 H32          3.0830    -0.1710     1.4790 hc         1 I40       0.045200
     29 H31          1.5000    -0.7760     2.0090 hc         1 I40       0.045200
     30 H42          1.8890     1.3280     3.1310 hc         1 I40       0.058700
     31 H41          2.3310     2.1130     1.6070 hc         1 I40       0.058700
     32 H6          -1.6950     4.6260     3.9410 ha         1 I40       0.126000
     33 H7          -4.0330     5.1950     3.5290 ha         1 I40       0.129000
     34 H8          -5.3260     4.0190     1.7960 ha         1 I40       0.132000
     35 H9          -4.3040     2.2620     0.4510 ha         1 I40       0.148000
     36 H2N1         0.6020     4.3660     3.5520 hn         1 I40       0.426800
     37 H142        -0.8520     2.8900     5.1310 h1         1 I40       0.048200
     38 H141         0.3560     1.6490     4.7700 h1         1 I40       0.048200
     39 H16          2.6140     1.8140     5.6290 ha         1 I40       0.146000
     40 H18          3.3700     4.7060     8.6790 ha         1 I40       0.142000
     41 H19          1.1780     5.7440     8.2370 ha         1 I40       0.137000
     42 H20         -0.2900     4.8270     6.4800 ha         1 I40       0.132000
@<TRIPOS>BOND
     1     1     2 1
     2     1    11 1
     3     1    24 1
     4     1    25 1
     5     2     3 1
     6     2    26 1
     7     2    27 1
     8     3     4 1
     9     3    28 1
    10     3    29 1
    11     4    12 1
    12     4    30 1
    13     4    31 1
    14     5    12 ar
    15     5    13 ar
    16     5    15 1
    17     6     7 ar
    18     6    13 ar
    19     6    32 1
    20     7     8 ar
    21     7    33 1
    22     8     9 ar
    23     8    34 1
    24     9    14 ar
    25     9    35 1
    26    10    11 ar
    27    10    14 ar
    28    11    12 ar
    29    13    14 ar
    30    15    17 1
    31    15    36 1
    32    16    20 1
    33    17    18 1
    34    17    37 1
    35    17    38 1
    36    18    19 ar
    37    18    23 ar
    38    19    20 ar
    39    19    39 1
    40    20    21 ar
    41    21    22 ar
    42    21    40 1
    43    22    23 ar
    44    22    41 1
    45    23    42 1
@<TRIPOS>SUBSTRUCTURE
     1 I40         1 TEMP              0 ****  ****    0 ROOT
