@<TRIPOS>MOLECULE
I41
   48    49     1     0     0
SMALL
bcc


@<TRIPOS>ATOM
      1 O04          0.0000     0.0000     0.0000 o          1 I41      -0.534000
      2 C03          1.2070     0.0000     0.0000 c          1 I41       0.658100
      3 O02          1.8780     0.0070    -1.1620 os         1 I41      -0.432900
      4 C01          1.0880     0.0130    -2.3800 c3         1 I41       0.267700
      5 C05          1.9620     0.0000     1.3050 c3         1 I41      -0.017300
      6 C06          2.8420    -1.2490     1.3850 c3         1 I41       0.076900
      7 C07          3.6870    -1.1890     2.6320 cc         1 I41      -0.437900
      8 C08          3.3240    -1.5850     3.8670 cd         1 I41       0.334200
      9 N09          4.3590    -1.3660     4.6920 nd         1 I41      -0.618000
     10 C10          5.3470    -0.8490     4.0160 cc         1 I41       0.201400
     11 N11          4.9720    -0.7270     2.7240 na         1 I41       0.259100
     12 N12          1.0100    -0.0010     2.4190 ns         1 I41      -0.199900
     13 C13          0.4940     1.1620     2.8660 c          1 I41       0.594100
     14 O14          0.8190     2.2080     2.3460 o          1 I41      -0.638100
     15 C15         -0.4850     1.1610     4.0110 c3         1 I41       0.050800
     16 N16         -0.8950     2.5400     4.3060 n3         1 I41      -0.500600
     17 C17         -1.6630     3.1100     3.1900 c3         1 I41       0.001800
     18 C18         -2.9540     2.3510     3.0300 c          1 I41       0.961600
     19 O19         -3.8450     2.7320     2.1010 o          1 I41      -0.899300
     20 O20         -3.1880     1.4000     3.7380 o          1 I41      -0.899300
     21 C21         -1.6580     2.6060     5.5590 c3         1 I41       0.146100
     22 C22         -1.7190     4.0350     6.0370 ca         1 I41      -0.051300
     23 C23         -2.8160     4.8180     5.7350 ca         1 I41      -0.090000
     24 C24         -2.8720     6.1280     6.1720 ca         1 I41      -0.118000
     25 C25         -1.8290     6.6530     6.9120 ca         1 I41      -0.130000
     26 C26         -0.7320     5.8690     7.2140 ca         1 I41      -0.118000
     27 C27         -0.6780     4.5590     6.7800 ca         1 I41      -0.090000
     28 H05          2.5850     0.8850     1.3620 h1         1 I41       0.069700
     29 H011         1.7470    -0.0280    -3.2390 h1         1 I41      -0.000300
     30 H012         0.4300    -0.8480    -2.3880 h1         1 I41      -0.000300
     31 H013         0.4960     0.9200    -2.4220 h1         1 I41      -0.000300
     32 H061         3.4850    -1.2930     0.5140 hc         1 I41       0.025700
     33 H062         2.2140    -2.1310     1.4150 hc         1 I41       0.025700
     34 H12          0.7130    -0.8670     2.8220 hn         1 I41       0.180500
     35 H08          2.3660    -2.0060     4.1460 h4         1 I41       0.007100
     36 H11          5.5280    -0.3620     1.9760 hn         1 I41       0.118700
     37 H10          6.3120    -0.5700     4.4220 h5         1 I41       0.018100
     38 H151        -1.3550     0.5750     3.7420 h1         1 I41       0.051700
     39 H152        -0.0160     0.7290     4.8870 h1         1 I41       0.051700
     40 H171        -1.0840     3.0350     2.2780 h1         1 I41       0.045200
     41 H172        -1.8790     4.1510     3.3960 h1         1 I41       0.045200
     42 H211        -1.1730     1.9940     6.3100 h1         1 I41       0.044200
     43 H212        -2.6640     2.2390     5.3890 h1         1 I41       0.044200
     44 H23         -3.6330     4.4060     5.1550 ha         1 I41       0.118000
     45 H27          0.1820     3.9440     7.0170 ha         1 I41       0.118000
     46 H24         -3.7320     6.7430     5.9360 ha         1 I41       0.089500
     47 H25         -1.8710     7.6810     7.2540 ha         1 I41       0.085000
     48 H26          0.0850     6.2800     7.7950 ha         1 I41       0.089500
@<TRIPOS>BOND
     1     1     2 2   
     2     2     3 1   
     3     2     5 1   
     4     3     4 1   
     5     4    29 1   
     6     4    30 1   
     7     4    31 1   
     8     5     6 1   
     9     5    12 1   
    10     5    28 1   
    11     6     7 1   
    12     6    32 1   
    13     6    33 1   
    14     7     8 2   
    15     7    11 1   
    16     8     9 1   
    17     8    35 1   
    18     9    10 2   
    19    10    11 1   
    20    10    37 1   
    21    11    36 1   
    22    12    13 1   
    23    12    34 1   
    24    13    14 2   
    25    13    15 1   
    26    15    16 1   
    27    15    38 1   
    28    15    39 1   
    29    16    17 1   
    30    16    21 1   
    31    17    18 1   
    32    17    40 1   
    33    17    41 1   
    34    18    19 1   
    35    18    20 1   
    36    21    22 1   
    37    21    42 1   
    38    21    43 1   
    39    22    23 ar  
    40    22    27 ar  
    41    23    24 ar  
    42    23    44 1   
    43    24    25 ar  
    44    24    46 1   
    45    25    26 ar  
    46    25    47 1   
    47    26    27 ar  
    48    26    48 1   
    49    27    45 1   
@<TRIPOS>SUBSTRUCTURE
     1 I41         1 TEMP              0 ****  ****    0 ROOT
