@<TRIPOS>MOLECULE
molecule
   48    49     1     0     0
SMALL
bcc


@<TRIPOS>ATOM
      1 O04          0.0000     0.0000     0.0000 o          1 I41      -0.497000
      2 C03          1.2070     0.0000     0.0000 c          1 I41       0.597100
      3 O02          1.8780     0.0070    -1.1620 os         1 I41      -0.449900
      4 C01          1.0880     0.0130    -2.3800 c3         1 I41       0.139700
      5 C05          1.9620     0.0000     1.3050 c3         1 I41       0.084700
      6 C06          2.8420    -1.2490     1.3850 c3         1 I41      -0.011100
      7 C07          3.6870    -1.1890     2.6320 cc         1 I41      -0.231900
      8 C08          3.3240    -1.5850     3.8670 cd         1 I41       0.327200
      9 N09          4.3590    -1.3660     4.6920 nd         1 I41      -0.697000
     10 C10          5.3470    -0.8490     4.0160 cc         1 I41       0.390400
     11 N11          4.9720    -0.7270     2.7240 na         1 I41      -0.294900
     12 N12          1.0100    -0.0010     2.4190 ns         1 I41      -0.578900
     13 C13          0.4940     1.1620     2.8660 c          1 I41       0.673100
     14 O14          0.8190     2.2080     2.3460 o          1 I41      -0.596100
     15 C15         -0.4850     1.1610     4.0110 c3         1 I41       0.084800
     16 N16         -0.8950     2.5400     4.3060 n3         1 I41      -0.699600
     17 C17         -1.6630     3.1100     3.1900 c3         1 I41       0.034800
     18 C18         -2.9540     2.3510     3.0300 c          1 I41       0.861600
     19 O19         -3.8450     2.7320     2.1010 o          1 I41      -0.856300
     20 O20         -3.1880     1.4000     3.7380 o          1 I41      -0.856300
     21 C21         -1.6580     2.6060     5.5590 c3         1 I41       0.183100
     22 C22         -1.7190     4.0350     6.0370 ca         1 I41      -0.052300
     23 C23         -2.8160     4.8180     5.7350 ca         1 I41      -0.113000
     24 C24         -2.8720     6.1280     6.1720 ca         1 I41      -0.144000
     25 C25         -1.8290     6.6530     6.9120 ca         1 I41      -0.150000
     26 C26         -0.7320     5.8690     7.2140 ca         1 I41      -0.144000
     27 C27         -0.6780     4.5590     6.7800 ca         1 I41      -0.113000
     28 H05          2.5850     0.8850     1.3620 h1         1 I41       0.104700
     29 H011         1.7470    -0.0280    -3.2390 h1         1 I41       0.046033
     30 H012         0.4300    -0.8480    -2.3880 h1         1 I41       0.046033
     31 H013         0.4960     0.9200    -2.4220 h1         1 I41       0.046033
     32 H061         3.4850    -1.2930     0.5140 hc         1 I41       0.063200
     33 H062         2.2140    -2.1310     1.4150 hc         1 I41       0.063200
     34 H12          0.7130    -0.8670     2.8220 hn         1 I41       0.316500
     35 H08          2.3660    -2.0060     4.1460 h4         1 I41       0.042100
     36 H11          5.5280    -0.3620     1.9760 hn         1 I41       0.295700
     37 H10          6.3120    -0.5700     4.4220 h5         1 I41       0.059100
     38 H151        -1.3550     0.5750     3.7420 h1         1 I41       0.073200
     39 H152        -0.0160     0.7290     4.8870 h1         1 I41       0.073200
     40 H171        -1.0840     3.0350     2.2780 h1         1 I41       0.067700
     41 H172        -1.8790     4.1510     3.3960 h1         1 I41       0.067700
     42 H211        -1.1730     1.9940     6.3100 h1         1 I41       0.062200
     43 H212        -2.6640     2.2390     5.3890 h1         1 I41       0.062200
     44 H23         -3.6330     4.4060     5.1550 ha         1 I41       0.142000
     45 H27          0.1820     3.9440     7.0170 ha         1 I41       0.142000
     46 H24         -3.7320     6.7430     5.9360 ha         1 I41       0.113500
     47 H25         -1.8710     7.6810     7.2540 ha         1 I41       0.107000
     48 H26          0.0850     6.2800     7.7950 ha         1 I41       0.113500
@<TRIPOS>BOND
     1     1     2 2
     2     2     3 1
     3     2     5 1
     4     3     4 1
     5     5     6 1
     6     5    12 1
     7     6     7 1
     8     7     8 2
     9     7    11 1
    10     8     9 1
    11     9    10 2
    12    10    11 1
    13    12    13 1
    14    13    14 2
    15    13    15 1
    16    15    16 1
    17    16    17 1
    18    16    21 1
    19    17    18 1
    20    18    19 1
    21    18    20 1
    22    21    22 1
    23    22    23 ar
    24    22    27 ar
    25    23    24 ar
    26    24    25 ar
    27    25    26 ar
    28    26    27 ar
    29     5    28 1
    30     4    29 1
    31     4    30 1
    32     4    31 1
    33     6    32 1
    34     6    33 1
    35    12    34 1
    36     8    35 1
    37    11    36 1
    38    10    37 1
    39    15    38 1
    40    15    39 1
    41    17    40 1
    42    17    41 1
    43    21    42 1
    44    21    43 1
    45    23    44 1
    46    27    45 1
    47    24    46 1
    48    25    47 1
    49    26    48 1
@<TRIPOS>SUBSTRUCTURE
     1 I41         1 TEMP              0 ****  ****    0 ROOT
