@<TRIPOS>MOLECULE
molecule
   33    33     1     0     0
SMALL
bcc


@<TRIPOS>ATOM
      1 N1           0.0000     0.0000     0.0000 n          1 I43      -0.410000
      2 C01         -0.7330     0.0060    -1.2690 c3         1 I43       0.055300
      3 O1           1.9430    -0.0000    -1.0640 o          1 I43      -0.641500
      4 O2           2.1550     0.0000     3.4540 os         1 I43      -0.391400
      5 C02          3.5770     0.0000     3.3170 c3         1 I43       0.132700
      6 N2           2.0390     0.0000     1.1360 nc         1 I43      -0.767100
      7 C1           1.3450     0.0000     0.0000 c          1 I43       0.848900
      8 C2           1.4280     0.0010     2.3130 cd         1 I43       0.759900
      9 C3           0.0270    -0.0060     2.3720 cd         1 I43      -0.292800
     10 C4          -0.6850    -0.0110     3.7000 c3         1 I43      -0.024900
     11 C5          -0.6870     0.0000     1.1880 cc         1 I43       0.052600
     12 C11         -2.1580     0.0080     1.2030 ce         1 I43      -0.308000
     13 C12         -2.8310    -1.0950     0.8850 c2         1 I43       0.027600
     14 C13         -2.1010    -2.2900     0.3300 c3         1 I43       0.144600
     15 C14         -4.3250    -1.1480     1.0820 c3         1 I43       0.144600
     16 O3          -1.6460    -3.1130     1.4050 oh         1 I43      -0.579300
     17 O4          -4.7800     0.0970     1.6170 oh         1 I43      -0.579300
     18 H1          -1.7580     0.3090    -1.0920 h1         1 I43       0.068033
     19 H2          -0.2630     0.7020    -1.9530 h1         1 I43       0.068033
     20 H3          -0.7190    -0.9880    -1.6990 h1         1 I43       0.068033
     21 H4           3.8870    -0.8860     2.7760 h1         1 I43       0.053033
     22 H5           3.8870     0.8830     2.7710 h1         1 I43       0.053033
     23 H6           4.0350     0.0030     4.2980 h1         1 I43       0.053033
     24 H7          -0.9070    -1.0320     3.9870 hc         1 I43       0.052367
     25 H8          -0.0520     0.4450     4.4510 hc         1 I43       0.052367
     26 H9          -1.6090     0.5490     3.6170 hc         1 I43       0.052367
     27 H10         -1.6150     0.1820     0.2820 ha         1 I43       0.323000
     28 H13         -1.2520    -1.9550    -0.2530 h1         1 I43       0.043200
     29 H14         -2.7710    -2.8600    -0.3030 h1         1 I43       0.043200
     30 H15         -4.8080    -1.3300     0.1290 h1         1 I43       0.043200
     31 H16         -4.5700    -1.9480     1.7700 h1         1 I43       0.043200
     32 H17         -1.5410    -3.9990     1.1000 ho         1 I43       0.405000
     33 H18         -5.7150     0.0650     1.7360 ho         1 I43       0.405000
@<TRIPOS>BOND
     1    17    15 1
     2    15    13 1
     3     4     8 1
     4     4     5 1
     5     6     8 2
     6     6     7 1
     7     8     9 1
     8     3     7 2
     9     7     1 1
    10     9    10 1
    11     9    11 2
    12    13    14 1
    13    13    12 2
    14     1    11 1
    15     1     2 1
    16    11    12 1
    17    14    16 1
    18     2    18 1
    19     2    19 1
    20     2    20 1
    21     5    21 1
    22     5    22 1
    23     5    23 1
    24    10    24 1
    25    10    25 1
    26    10    26 1
    27    12    27 1
    28    14    28 1
    29    14    29 1
    30    15    30 1
    31    15    31 1
    32    16    32 1
    33    17    33 1
@<TRIPOS>SUBSTRUCTURE
     1 I43         1 TEMP              0 ****  ****    0 ROOT
