@<TRIPOS>MOLECULE
I43
   33    33     1     0     0
SMALL
bcc


@<TRIPOS>ATOM
      1 N1           0.0000     0.0000     0.0000 n          1 I43       0.068000
      2 C01         -0.7330     0.0060    -1.2690 c3         1 I43       0.040300
      3 O1           1.9430    -0.0000    -1.0640 o          1 I43      -0.692500
      4 O2           2.1550     0.0000     3.4540 os         1 I43      -0.385400
      5 C02          3.5770     0.0000     3.3170 c3         1 I43       0.254700
      6 N2           2.0390     0.0000     1.1360 nc         1 I43      -0.683100
      7 C1           1.3450     0.0000     0.0000 c          1 I43       0.715900
      8 C2           1.4280     0.0010     2.3130 cd         1 I43       0.729900
      9 C3           0.0270    -0.0060     2.3720 cd         1 I43      -0.321800
     10 C4          -0.6850    -0.0110     3.7000 c3         1 I43       0.083100
     11 C5          -0.6870     0.0000     1.1880 cc         1 I43      -0.016400
     12 C11         -2.1580     0.0080     1.2030 ce         1 I43      -0.085000
     13 C12         -2.8310    -1.0950     0.8850 c2         1 I43      -0.147400
     14 C13         -2.1010    -2.2900     0.3300 c3         1 I43       0.267600
     15 C14         -4.3250    -1.1480     1.0820 c3         1 I43       0.267600
     16 O3          -1.6460    -3.1130     1.4050 oh         1 I43      -0.588800
     17 O4          -4.7800     0.0970     1.6170 oh         1 I43      -0.588800
     18 H1          -1.7830     0.1880    -1.0780 h1         1 I43       0.030700
     19 H2          -0.6150    -0.9530    -1.7580 h1         1 I43       0.030700
     20 H3          -0.3410     0.7880    -1.9080 h1         1 I43       0.030700
     21 H4           3.8880     0.8840     2.7730 h1         1 I43       0.005367
     22 H5           4.0350     0.0000     4.2980 h1         1 I43       0.005367
     23 H6           3.8870    -0.8850     2.7740 h1         1 I43       0.005367
     24 H7          -1.4320     0.7730     3.7130 hc         1 I43       0.013700
     25 H8          -1.1670    -0.9710     3.8480 hc         1 I43       0.013700
     26 H9           0.0310     0.1590     4.4950 hc         1 I43       0.013700
     27 H10         -2.6930     0.9210     1.4350 ha         1 I43       0.146000
     28 H13         -1.2520    -1.9550    -0.2530 h1         1 I43      -0.000800
     29 H14         -2.7710    -2.8600    -0.3030 h1         1 I43      -0.000800
     30 H15         -4.5700    -1.9480     1.7700 h1         1 I43      -0.000800
     31 H16         -4.8080    -1.3300     0.1290 h1         1 I43      -0.000800
     32 H17         -1.6330    -4.0140     1.1280 ho         1 I43       0.395500
     33 H18         -5.7110     0.0570     1.7570 ho         1 I43       0.395500
@<TRIPOS>BOND
     1     1     2 1   
     2     1     7 1   
     3     1    11 1   
     4     2    18 1   
     5     2    19 1   
     6     2    20 1   
     7     3     7 2   
     8     4     5 1   
     9     4     8 1   
    10     5    21 1   
    11     5    22 1   
    12     5    23 1   
    13     6     7 1   
    14     6     8 2   
    15     8     9 1   
    16     9    10 1   
    17     9    11 2   
    18    10    24 1   
    19    10    25 1   
    20    10    26 1   
    21    11    12 1   
    22    12    13 2   
    23    12    27 1   
    24    13    14 1   
    25    13    15 1   
    26    14    16 1   
    27    14    28 1   
    28    14    29 1   
    29    15    17 1   
    30    15    30 1   
    31    15    31 1   
    32    16    32 1   
    33    17    33 1   
@<TRIPOS>SUBSTRUCTURE
     1 I43         1 TEMP              0 ****  ****    0 ROOT
