@<TRIPOS>MOLECULE
molecule
   49    51     1     0     0
SMALL
bcc


@<TRIPOS>ATOM
      1 C1           0.0000     0.0000     0.0000 ca         1 I45      -0.148300
      2 C2           1.3860     0.0000     0.0000 ca         1 I45       0.161900
      3 C3           2.0770     0.0000     1.1990 ca         1 I45      -0.210000
      4 C4           1.3840     0.0010     2.3970 ca         1 I45       0.162900
      5 C5          -0.0010    -0.0000     2.3950 ca         1 I45      -0.183000
      6 C6          -0.6910     0.0000     1.1970 ca         1 I45      -0.051000
      7 C7          -0.7530     0.0060    -1.3060 c3         1 I45       0.204700
      8 O8          -2.1580     0.0050    -1.0450 os         1 I45      -0.340900
      9 C9          -2.9820    -0.0600    -2.1170 cc         1 I45       0.227100
     10 C10         -3.7880    -1.1670    -2.3170 cd         1 I45      -0.206500
     11 C11         -4.6290    -1.2040    -3.4350 c          1 I45       0.703700
     12 N12         -4.6490    -0.1730    -4.3010 n          1 I45      -0.228200
     13 C13         -3.8590     0.9190    -4.1110 cd         1 I45       0.090400
     14 C14         -3.0370     1.0000    -3.0430 cc         1 I45      -0.284000
     15 C15         -5.4970    -0.2250    -5.4150 ca         1 I45       0.005600
     16 C16         -6.7890     0.2690    -5.3270 ca         1 I45      -0.044000
     17 C17         -7.6280     0.2150    -6.4390 ca         1 I45      -0.147600
     18 C18         -7.1620    -0.3360    -7.6340 ca         1 I45      -0.090000
     19 C19         -5.8740    -0.8250    -7.7120 ca         1 I45      -0.134000
     20 C20         -5.0410    -0.7670    -6.6110 ca         1 I45      -0.039300
     21 F21          2.0610    -0.0010    -1.1700 f          1 I45      -0.135900
     22 F22          2.0570     0.0000     3.5670 f          1 I45      -0.131900
     23 Br23        -3.7520    -2.6100    -1.0970 br         1 I45      -0.018700
     24 O24         -5.3470    -2.1730    -3.6260 o          1 I45      -0.614500
     25 C25         -3.9080     2.0540    -5.1010 c3         1 I45      -0.065900
     26 C26         -9.0090     0.7400    -6.3530 c          1 I45       0.673700
     27 O27         -9.4130     1.2190    -5.3120 o          1 I45      -0.601100
     28 N28         -9.8180     0.6860    -7.4300 ns         1 I45      -0.585900
     29 C29        -11.1850     1.2070    -7.3440 c3         1 I45       0.104300
     30 C30         -3.6320    -1.2970    -6.7060 c3         1 I45      -0.056800
     31 H3           3.1600     0.0000     1.1990 ha         1 I45       0.162000
     32 H5          -0.5440     0.0000     3.3320 ha         1 I45       0.154000
     33 H6          -1.7740    -0.0000     1.1960 ha         1 I45       0.168000
     34 H7          -0.4910    -0.8760    -1.8780 h1         1 I45       0.051700
     35 H7A         -0.4910     0.8930    -1.8690 h1         1 I45       0.051700
     36 H14         -2.4140     1.8750    -2.9040 ha         1 I45       0.160000
     37 H16         -7.1460     0.6960    -4.3970 ha         1 I45       0.171000
     38 H18         -7.8120    -0.3810    -8.5000 ha         1 I45       0.129000
     39 H19         -5.5130    -1.2510    -8.6400 ha         1 I45       0.142000
     40 H25         -4.8950     2.5010    -5.0890 hc         1 I45       0.064033
     41 H25A        -3.6950     1.6760    -6.0940 hc         1 I45       0.064033
     42 H25B        -3.1700     2.7990    -4.8320 hc         1 I45       0.064033
     43 HN28        -9.4720     0.3280    -8.2980 hn         1 I45       0.313500
     44 H29        -11.1550     2.2600    -7.0940 h1         1 I45       0.043700
     45 H29A       -11.7290     0.6680    -6.5780 h1         1 I45       0.043700
     46 H29B       -11.6810     1.0760    -8.2980 h1         1 I45       0.043700
     47 H30         -3.4110    -1.5510    -7.7350 hc         1 I45       0.053700
     48 H30A        -3.5370    -2.1820    -6.0870 hc         1 I45       0.053700
     49 H30B        -2.9380    -0.5400    -6.3630 hc         1 I45       0.053700
@<TRIPOS>BOND
     1     1     2 ar
     2     1     6 ar
     3     1     7 1
     4     2     3 ar
     5     2    21 1
     6     3     4 ar
     7     4     5 ar
     8     4    22 1
     9     5     6 ar
    10     7     8 1
    11     8     9 1
    12     9    10 2
    13     9    14 1
    14    10    11 1
    15    10    23 1
    16    11    12 1
    17    11    24 2
    18    12    13 1
    19    12    15 1
    20    13    14 2
    21    13    25 1
    22    15    16 ar
    23    15    20 ar
    24    16    17 ar
    25    17    18 ar
    26    17    26 1
    27    18    19 ar
    28    19    20 ar
    29    20    30 1
    30    26    27 2
    31    26    28 1
    32    28    29 1
    33     3    31 1
    34     5    32 1
    35     6    33 1
    36     7    34 1
    37     7    35 1
    38    14    36 1
    39    16    37 1
    40    18    38 1
    41    19    39 1
    42    25    40 1
    43    25    41 1
    44    25    42 1
    45    28    43 1
    46    29    44 1
    47    29    45 1
    48    29    46 1
    49    30    47 1
    50    30    48 1
    51    30    49 1
@<TRIPOS>SUBSTRUCTURE
     1 I45         1 TEMP              0 ****  ****    0 ROOT
