@<TRIPOS>MOLECULE
molecule
   28    30     1     0     0
SMALL
bcc


@<TRIPOS>ATOM
      1 C1           0.0000     0.0000     0.0000 ca         1 I46      -0.096500
      2 C2           0.0080     0.0090     2.4100 ca         1 I46      -0.096500
      3 C3           1.3800     0.0000     0.0000 ca         1 I46      -0.165500
      4 C4           1.3870    -0.0010     2.4020 ca         1 I46      -0.165500
      5 C5          -3.2960     2.2610    -1.5960 ca         1 I46      -0.249300
      6 C6          -2.8490     3.2750    -2.4150 ca         1 I46       0.449200
      7 C7          -1.4190     2.6950    -0.1650 ca         1 I46      -0.264300
      8 C8          -2.9820    -0.8360     1.9230 cc         1 I46      -0.097300
      9 C9          -0.6940     0.0040     1.2070 ca         1 I46      -0.024000
     10 C10          2.0740     0.0000     1.1990 ca         1 I46       0.132900
     11 C11         -2.5730     1.9560    -0.4370 ca         1 I46      -0.054500
     12 C12         -1.0450     3.7010    -1.0370 ca         1 I46       0.641500
     13 C13         -2.1790     0.0040     1.2120 cd         1 I46      -0.245300
     14 C14         -3.0190     0.8760     0.4760 cd         1 I46       0.397800
     15 N15         -4.2630    -0.5140     1.6480 na         1 I46      -0.034600
     16 N16         -1.7580     3.9560    -2.1200 nb         1 I46      -0.724000
     17 N17         -4.2660     0.5580     0.7480 nc         1 I46      -0.492800
     18 F18          3.4260    -0.0100     1.1950 f          1 I46      -0.139900
     19 F19          0.0620     4.4300    -0.7790 f          1 I46      -0.217200
     20 H1          -0.5420    -0.0020    -0.9380 ha         1 I46       0.141500
     21 H2          -0.5290     0.0100     3.3520 ha         1 I46       0.141500
     22 H3           1.9210    -0.0010    -0.9380 ha         1 I46       0.148000
     23 H4           1.9340     0.0010     3.3370 ha         1 I46       0.148000
     24 H6          -3.4030     3.5180    -3.3140 h4         1 I46       0.032100
     25 H7          -0.8320     2.4890     0.7220 ha         1 I46       0.166000
     26 H8          -2.6510    -1.6250     2.5870 h4         1 I46       0.179000
     27 HN15        -5.0730    -0.9620     2.0270 hn         1 I46       0.336700
     28 H5          -4.1940     1.7090    -1.8450 ha         1 I46       0.156000
@<TRIPOS>BOND
     1     9     1 ar
     2     1     3 ar
     3     1    20 1
     4     2     9 ar
     5     2     4 ar
     6     2    21 1
     7    10     3 ar
     8     3    22 1
     9     4    10 ar
    10     4    23 1
    11     6     5 ar
    12     5    11 ar
    13     5    28 1
    14     6    16 ar
    15     6    24 1
    16    12     7 ar
    17    11     7 ar
    18     7    25 1
    19    15     8 1
    20    13     8 2
    21     8    26 1
    22    13     9 1
    23    10    18 1
    24    11    14 1
    25    16    12 ar
    26    12    19 1
    27    14    13 1
    28    17    14 2
    29    17    15 1
    30    15    27 1
@<TRIPOS>SUBSTRUCTURE
     1 I46         1 TEMP              0 ****  ****    0 ROOT
