@<TRIPOS>MOLECULE
I46
   28    30     1     0     0
SMALL
bcc


@<TRIPOS>ATOM
      1 C1          0.1110    0.1420    0.0530 ca        1 I46     -0.097000
      2 C2          0.0630   -0.2170    2.4450 ca        1 I46     -0.097000
      3 C3          1.4970    0.0460    0.0570 ca        1 I46     -0.164500
      4 C4          1.4500   -0.3130    2.4690 ca        1 I46     -0.164500
      5 C5         -3.3670    2.1850   -1.6380 ca        1 I46     -0.240300
      6 C6         -2.9940    3.2270   -2.5050 ca        1 I46      0.415200
      7 C7         -1.5110    2.8090   -0.2290 ca        1 I46     -0.259300
      8 C8         -2.9210   -0.7380    2.0060 cc        1 I46     -0.138300
      9 C9         -0.6230    0.0120    1.2420 ca        1 I46     -0.023000
     10 C10         2.1740   -0.1830    1.2690 ca        1 I46      0.127900
     11 C11        -2.6070    1.9730   -0.4780 ca        1 I46     -0.052500
     12 C12        -1.2220    3.8310   -1.1680 ca        1 I46      0.605500
     13 C13        -2.0620    0.0750    1.2380 cd        1 I46     -0.180300
     14 C14        -2.9600    0.9220    0.4630 cd        1 I46      0.352800
     15 N15        -4.2210   -0.3660    1.6710 na        1 I46     -0.004600
     16 N16        -1.9500    4.0480   -2.3020 nb        1 I46     -0.683000
     17 N17        -4.2600    0.6070    0.7680 nc        1 I46     -0.496800
     18 F18         3.5240   -0.2790    1.2820 f         1 I46     -0.138900
     19 F19        -0.1650    4.6510   -0.9420 f         1 I46     -0.221200
     20 H1         -0.4210    0.3240   -0.8940 ha        1 I46      0.142000
     21 H2         -0.5040   -0.3160    3.3840 ha        1 I46      0.142000
     22 H3          2.0700    0.1480   -0.8760 ha        1 I46      0.151500
     23 H4          1.9860   -0.4890    3.4120 ha        1 I46      0.151500
     24 H6         -3.5700    3.4240   -3.4280 h4        1 I46      0.031100
     25 H7         -0.8840    2.6830    0.6640 ha        1 I46      0.169000
     26 H8         -2.7000   -1.5240    2.7270 h4        1 I46      0.184000
     27 HN15       -5.0660   -0.7390    2.0380 hn        1 I46      0.328700
     28 H5         -4.2390    1.5590   -1.8680 ha        1 I46      0.161000
@<TRIPOS>BOND
     1    1    3 ar  
     2    1    9 ar  
     3    1   20 1   
     4    2    4 ar  
     5    2    9 ar  
     6    2   21 1   
     7    3   10 ar  
     8    3   22 1   
     9    4   10 ar  
    10    4   23 1   
    11    5    6 ar  
    12    5   11 ar  
    13    5   28 1   
    14    6   16 ar  
    15    6   24 1   
    16    7   11 ar  
    17    7   12 ar  
    18    7   25 1   
    19    8   13 2   
    20    8   15 1   
    21    8   26 1   
    22    9   13 1   
    23   10   18 1   
    24   11   14 1   
    25   12   16 ar  
    26   12   19 1   
    27   13   14 1   
    28   14   17 2   
    29   15   17 1   
    30   15   27 1   
@<TRIPOS>SUBSTRUCTURE
     1 I46         1 TEMP              0 ****  ****    0 ROOT
