@<TRIPOS>MOLECULE
I47
   48    51     1     0     0
SMALL
bcc


@<TRIPOS>ATOM
      1 C1           0.0000     0.0000     0.0000 cc         1 I47      -0.175300
      2 N2           1.3600     0.0000     0.0000 na         1 I47       0.473400
      3 N3           1.7960     0.0000     1.3290 nc         1 I47      -0.656800
      4 C4           0.7570    -0.0010     2.1210 cd         1 I47       0.410600
      5 C5          -0.4060    -0.0010     1.3290 cd         1 I47      -0.371800
      6 C6          -0.8800     0.0050    -1.1880 ca         1 I47      -0.028000
      7 C7          -1.8030    -0.0010     1.8210 ca         1 I47       0.527800
      8 C8           0.7980    -0.0020     3.6270 c3         1 I47      -0.067000
      9 C9          -1.9550     0.8940    -1.2590 ca         1 I47      -0.078000
     10 C10         -2.7720     0.8930    -2.3710 ca         1 I47      -0.095500
     11 C11         -2.5280     0.0160    -3.4130 ca         1 I47      -0.029600
     12 C12         -1.4640    -0.8680    -3.3480 ca         1 I47      -0.095500
     13 C13         -0.6360    -0.8740    -2.2450 ca         1 I47      -0.078000
     14 C14         -2.7420    -0.8930     1.2930 ca         1 I47      -0.343600
     15 C15         -4.0330    -0.8520     1.7860 ca         1 I47       0.444200
     16 N16         -4.3350     0.0220     2.7360 nb         1 I47      -0.637000
     17 C17         -3.4270     0.8480     3.2130 ca         1 I47       0.629900
     18 N18         -2.1840     0.8440     2.7790 nb         1 I47      -0.634000
     19 C19          1.5340    -1.2530     4.1160 c3         1 I47      -0.040900
     20 C20          1.5430    -1.2670     5.6480 c3         1 I47       0.050000
     21 N21          2.1150    -0.0040     6.1300 n          1 I47      -0.163800
     22 C22          1.5400     1.2610     5.6500 c3         1 I47       0.050000
     23 C23          1.5310     1.2480     4.1180 c3         1 I47      -0.040900
     24 Cl24        -3.5620     0.0210    -4.8080 cl         1 I47      -0.014400
     25 C25          3.1470    -0.0030     6.9970 c          1 I47       0.577100
     26 O26          3.6120    -1.0540     7.3860 o          1 I47      -0.618100
     27 C27          3.7230     1.3020     7.4820 c3         1 I47       0.154400
     28 O28          4.8000     1.0410     8.3860 oh         1 I47      -0.552800
     29 H8          -0.2110    -0.0030     4.0200 hc         1 I47       0.048700
     30 H9          -2.1460     1.5810    -0.4450 ha         1 I47       0.114500
     31 H10         -3.6060     1.5820    -2.4290 ha         1 I47       0.119500
     32 H12         -1.2770    -1.5510    -4.1680 ha         1 I47       0.119500
     33 H13          0.1970    -1.5650    -2.1950 ha         1 I47       0.114500
     34 H14         -2.4660    -1.5960     0.5160 ha         1 I47       0.132000
     35 H15         -4.7890    -1.5270     1.4020 h4         1 I47      -0.013900
     36 H17         -3.7090     1.5480     3.9910 h5         1 I47      -0.000900
     37 H19          2.5530    -1.2380     3.7500 hc         1 I47       0.031200
     38 H19A         1.0250    -2.1360     3.7510 hc         1 I47       0.031200
     39 H20          0.5290    -1.3700     6.0150 h1         1 I47       0.028700
     40 H20A         2.1480    -2.0950     5.9980 h1         1 I47       0.028700
     41 H22          0.5260     1.3610     6.0180 h1         1 I47       0.028700
     42 H22A         2.1430     2.0890     6.0020 h1         1 I47       0.028700
     43 H23          2.5510     1.2350     3.7520 hc         1 I47       0.031200
     44 H23A         1.0220     2.1310     3.7540 hc         1 I47       0.031200
     45 H27          2.9540     1.8690     7.9920 h1         1 I47      -0.001800
     46 H27A         4.0910     1.8710     6.6370 h1         1 I47      -0.001800
     47 HO28         5.1560     1.8580     8.6940 ho         1 I47       0.383000
     48 HN2          1.9470     0.0000    -0.8110 hn         1 I47       0.151700
@<TRIPOS>BOND
     1     1     2 1   
     2     1     5 2   
     3     1     6 1   
     4     2     3 1   
     5     2    48 1   
     6     3     4 2   
     7     4     5 1   
     8     4     8 1   
     9     5     7 1   
    10     6     9 ar  
    11     6    13 ar  
    12     7    14 ar  
    13     7    18 ar  
    14     8    19 1   
    15     8    23 1   
    16     8    29 1   
    17     9    10 ar  
    18     9    30 1   
    19    10    11 ar  
    20    10    31 1   
    21    11    12 ar  
    22    11    24 1   
    23    12    13 ar  
    24    12    32 1   
    25    13    33 1   
    26    14    15 ar  
    27    14    34 1   
    28    15    16 ar  
    29    15    35 1   
    30    16    17 ar  
    31    17    18 ar  
    32    17    36 1   
    33    19    20 1   
    34    19    37 1   
    35    19    38 1   
    36    20    21 1   
    37    20    39 1   
    38    20    40 1   
    39    21    22 1   
    40    21    25 1   
    41    22    23 1   
    42    22    41 1   
    43    22    42 1   
    44    23    43 1   
    45    23    44 1   
    46    25    26 2   
    47    25    27 1   
    48    27    28 1   
    49    27    45 1   
    50    27    46 1   
    51    28    47 1   
@<TRIPOS>SUBSTRUCTURE
     1 I47         1 TEMP              0 ****  ****    0 ROOT
