@<TRIPOS>MOLECULE
molecule
   49    51     1     0     0
SMALL
bcc


@<TRIPOS>ATOM
      1 N1           0.0000     0.0000     0.0000 na         1 I48      -0.098100
      2 C2           1.3190     0.0000     0.0000 ca         1 I48       0.000700
      3 C3           2.0270     0.0000     1.1850 ca         1 I48      -0.221500
      4 C4           1.3270    -0.0010     2.3910 ca         1 I48       0.281600
      5 C5          -0.0670    -0.0080     2.3470 ca         1 I48      -0.221500
      6 C6          -0.6990    -0.0010     1.1200 ca         1 I48       0.000700
      7 NA1          2.0020    -0.0010     3.6080 nu         1 I48      -0.731600
      8 CA2          1.2480    -0.0010     4.8640 c3         1 I48       0.205800
      9 CA3          2.2230    -0.0010     6.0430 c3         1 I48       0.103400
     10 OA4          2.9640     1.2200     6.0480 os         1 I48      -0.305900
     11 C21          3.8090     1.1630     7.1120 ca         1 I48       0.119100
     12 C22          4.6640     2.2210     7.3750 ca         1 I48      -0.191000
     13 C23          5.5250     2.1590     8.4630 ca         1 I48       0.187600
     14 C24          5.5260     1.0380     9.2840 ca         1 I48      -0.169000
     15 C25          4.6710    -0.0140     9.0170 ca         1 I48      -0.022300
     16 C26          3.8170     0.0430     7.9320 ca         1 I48      -0.241000
     17 C27          4.6740    -1.2300     9.9080 c3         1 I48      -0.051800
     18 NB1          6.3900     3.2230     8.7320 nu         1 I48      -0.766500
     19 SB2          7.2710     3.9040     7.5050 sy         1 I48       1.425200
     20 OBA          8.1350     4.8450     8.1280 o          1 I48      -0.627300
     21 OBB          6.3380     4.1990     6.4760 o          1 I48      -0.627300
     22 C31          8.3220     2.6480     6.8530 ca         1 I48      -0.317500
     23 C32          7.9250     1.9210     5.7460 ca         1 I48      -0.025000
     24 C33          8.7490     0.9370     5.2340 ca         1 I48      -0.150500
     25 C34          9.9700     0.6790     5.8290 ca         1 I48      -0.067000
     26 C35         10.3680     1.4070     6.9350 ca         1 I48      -0.150500
     27 C36          9.5450     2.3940     7.4440 ca         1 I48      -0.025000
     28 H1          -0.4860     0.0030    -0.8750 hn         1 I48       0.334700
     29 H2           1.8540     0.0010    -0.9420 h4         1 I48       0.202500
     30 H3           3.1100     0.0030     1.1780 ha         1 I48       0.189500
     31 H5          -0.6460    -0.0090     3.2620 ha         1 I48       0.189500
     32 H6          -1.7810    -0.0040     1.0760 h4         1 I48       0.202500
     33 HA1          3.0020    -0.0220     3.6250 hn         1 I48       0.477800
     34 HA21         0.6240     0.8830     4.9110 h1         1 I48       0.072200
     35 HA22         0.6250    -0.8870     4.9110 h1         1 I48       0.072200
     36 HA31         2.9050    -0.8370     5.9480 h1         1 I48       0.067700
     37 HA32         1.6690    -0.0910     6.9700 h1         1 I48       0.067700
     38 H22          4.6620     3.0930     6.7340 ha         1 I48       0.194000
     39 H24          6.1960     0.9900    10.1340 ha         1 I48       0.147000
     40 H26          3.1480    -0.7840     7.7260 ha         1 I48       0.134000
     41 H271         3.6690    -1.4180    10.2660 hc         1 I48       0.051033
     42 H272         5.3320    -1.0570    10.7520 hc         1 I48       0.051033
     43 H273         5.0250    -2.0870     9.3470 hc         1 I48       0.051033
     44 HB1          6.5180     3.5370     9.6730 hn         1 I48       0.472800
     45 H32          6.9680     2.1230     5.2800 ha         1 I48       0.148500
     46 H33          8.4380     0.3660     4.3670 ha         1 I48       0.137000
     47 H34         10.6150    -0.0940     5.4290 ha         1 I48       0.138000
     48 H35         11.3250     1.2070     7.4000 ha         1 I48       0.137000
     49 H36          9.8570     2.9650     8.3100 ha         1 I48       0.148500
@<TRIPOS>BOND
     1     1     2 1
     2     1     6 2
     3     1    28 1
     4     2     3 ar
     5     2    29 1
     6     3     4 ar
     7     3    30 1
     8     4     5 ar
     9     4     7 1
    10     5     6 ar
    11     5    31 1
    12     6    32 1
    13     7     8 1
    14     7    33 1
    15     8     9 1
    16     8    34 1
    17     8    35 1
    18     9    10 1
    19     9    36 1
    20     9    37 1
    21    10    11 1
    22    11    12 ar
    23    11    16 ar
    24    12    13 ar
    25    12    38 1
    26    13    14 ar
    27    13    18 1
    28    14    15 ar
    29    14    39 1
    30    15    16 ar
    31    15    17 1
    32    16    40 1
    33    17    41 1
    34    17    42 1
    35    17    43 1
    36    18    19 1
    37    18    44 1
    38    19    20 2
    39    19    21 2
    40    19    22 1
    41    22    23 ar
    42    22    27 ar
    43    23    24 ar
    44    23    45 1
    45    24    25 ar
    46    24    46 1
    47    25    26 ar
    48    25    47 1
    49    26    27 ar
    50    26    48 1
    51    27    49 1
@<TRIPOS>SUBSTRUCTURE
     1 I48         1 TEMP              0 ****  ****    0 ROOT
