@<TRIPOS>MOLECULE
I4A
   49    52     1     0     0
SMALL
bcc


@<TRIPOS>ATOM
      1 O27          0.0000     0.0000     0.0000 o          1 I4A      -0.877300
      2 C25          1.3480     0.0000     0.0000 c          1 I4A       0.983200
      3 O26          1.9550     0.0000     1.0530 o          1 I4A      -0.877300
      4 C4           2.0850     0.0000    -1.2760 ca         1 I4A      -0.102600
      5 C6           2.9550     1.0580    -1.5900 ca         1 I4A      -0.185200
      6 C7           3.6500     1.0370    -2.8130 ca         1 I4A      -0.107800
      7 C9           4.4590     2.2560    -2.8350 cc         1 I4A      -0.148400
      8 C10          5.3750     2.7090    -3.9410 c3         1 I4A       0.074800
      9 C12          6.4860     3.5840    -3.3560 c3         1 I4A      -0.044400
     10 C14          6.0290     5.0410    -3.3370 c3         1 I4A      -0.021400
     11 C13          4.7930     5.2020    -2.4560 c3         1 I4A      -0.028400
     12 C11          4.8630     4.2190    -1.2850 c3         1 I4A       0.049800
     13 C8           4.2230     2.9110    -1.6850 cd         1 I4A      -0.265300
     14 C3           3.4710    -0.0250    -3.7000 ca         1 I4A      -0.074000
     15 C2           2.6130    -1.0550    -3.3780 ca         1 I4A      -0.140000
     16 C1           1.9290    -1.0530    -2.1760 ca         1 I4A      -0.062000
     17 N5           3.3190     2.2050    -0.9350 na         1 I4A       0.430600
     18 C15          2.8130     2.6190     0.3770 c3         1 I4A      -0.080400
     19 C16          1.6530     3.5630     0.1930 ca         1 I4A      -0.082300
     20 C17          0.3630     3.0790     0.1990 ca         1 I4A       0.026000
     21 C18         -0.7100     3.9550     0.0300 ca         1 I4A      -0.232600
     22 C22         -2.0960     3.4420     0.0360 c          1 I4A       0.317700
     23 N24         -3.1300     4.2910    -0.1280 nz         1 I4A       0.194600
     24 O23         -2.3050     2.2540     0.1880 o          1 I4A      -0.360100
     25 C19         -0.4680     5.3180    -0.1450 ca         1 I4A      -0.115000
     26 C20          0.8280     5.7910    -0.1480 ca         1 I4A      -0.098000
     27 C21          1.8860     4.9180     0.0260 ca         1 I4A      -0.045000
     28 H10          4.8090     3.2820    -4.6660 hc         1 I4A       0.013700
     29 H10A         5.8140     1.8430    -4.4210 hc         1 I4A       0.013700
     30 H12          6.7040     3.2620    -2.3450 hc         1 I4A       0.022700
     31 H12A         7.3750     3.4940    -3.9690 hc         1 I4A       0.022700
     32 H14          5.7890     5.3520    -4.3470 hc         1 I4A       0.007700
     33 H14A         6.8280     5.6600    -2.9470 hc         1 I4A       0.007700
     34 H13          3.9050     4.9990    -3.0430 hc         1 I4A       0.012700
     35 H13A         4.7550     6.2140    -2.0730 hc         1 I4A       0.012700
     36 H11          5.8990     4.0470    -1.0210 hc         1 I4A       0.021200
     37 H11A         4.3330     4.6340    -0.4360 hc         1 I4A       0.021200
     38 H3           4.0020    -0.0380    -4.6440 ha         1 I4A       0.091000
     39 H2           2.4820    -1.8800    -4.0680 ha         1 I4A       0.092000
     40 H1           1.2580    -1.8690    -1.9370 ha         1 I4A       0.113000
     41 H15          2.4840     1.7460     0.9290 h1         1 I4A       0.091200
     42 H15A         3.6010     3.1180     0.9280 h1         1 I4A       0.091200
     43 H17          0.1790     2.0320     0.4110 ha         1 I4A       0.222000
     44 HN24        -3.9900     3.7800    -0.0980 hn         1 I4A       0.236467
     45 HN2A        -3.0470     4.7510    -1.0130 hn         1 I4A       0.236467
     46 H19         -1.2960     6.0040    -0.2790 ha         1 I4A       0.065000
     47 H20          1.0170     6.8490    -0.2810 ha         1 I4A       0.111000
     48 H21          2.9020     5.2940     0.0220 ha         1 I4A       0.130000
     49 H243        -3.1210     4.9730     0.6040 hn         1 I4A       0.236467
@<TRIPOS>BOND
     1     1     2 1   
     2     2     3 1   
     3     2     4 1   
     4     4     5 ar  
     5     4    16 ar  
     6     5     6 ar  
     7     5    17 1   
     8     6     7 1   
     9     6    14 ar  
    10     7     8 1   
    11     7    13 2   
    12     8     9 1   
    13     8    28 1   
    14     8    29 1   
    15     9    10 1   
    16     9    30 1   
    17     9    31 1   
    18    10    11 1   
    19    10    32 1   
    20    10    33 1   
    21    11    12 1   
    22    11    34 1   
    23    11    35 1   
    24    12    13 1   
    25    12    36 1   
    26    12    37 1   
    27    13    17 1   
    28    14    15 ar  
    29    14    38 1   
    30    15    16 ar  
    31    15    39 1   
    32    16    40 1   
    33    17    18 1   
    34    18    19 1   
    35    18    41 1   
    36    18    42 1   
    37    19    20 ar  
    38    19    27 ar  
    39    20    21 ar  
    40    20    43 1   
    41    21    22 1   
    42    21    25 ar  
    43    22    23 1   
    44    22    24 2   
    45    23    44 1   
    46    23    45 1   
    47    23    49 1   
    48    25    26 ar  
    49    25    46 1   
    50    26    27 ar  
    51    26    47 1   
    52    27    48 1   
@<TRIPOS>SUBSTRUCTURE
     1 I4A         1 TEMP              0 ****  ****    0 ROOT
