@<TRIPOS>MOLECULE
molecule
   24    24     1     0     0
SMALL
bcc


@<TRIPOS>ATOM
      1 C1           0.0000     0.0000     0.0000 ca         1 I4B      -0.079300
      2 C2           1.3810     0.0000     0.0000 ca         1 I4B      -0.126000
      3 C3           2.0730     0.0000     1.1970 ca         1 I4B      -0.126500
      4 C4           1.3830     0.0010     2.3940 ca         1 I4B      -0.133000
      5 C5           0.0010     0.0020     2.3940 ca         1 I4B      -0.126500
      6 C6          -0.6910     0.0060     1.1970 ca         1 I4B      -0.126000
      7 C1'         -0.7540     0.0000    -1.3040 c3         1 I4B      -0.032100
      8 C2'         -1.0090    -1.4410    -1.7460 c3         1 I4B      -0.072700
      9 C3'         -1.7740    -1.4420    -3.0700 c3         1 I4B      -0.089100
     10 C4'          0.3280    -2.1620    -1.9300 c3         1 I4B      -0.089100
     11 H2           1.9230    -0.0030    -0.9380 ha         1 I4B       0.129500
     12 H3           3.1570    -0.0000     1.1960 ha         1 I4B       0.128000
     13 H4           1.9250    -0.0000     3.3320 ha         1 I4B       0.128000
     14 H5          -0.5410     0.0050     3.3330 ha         1 I4B       0.128000
     15 H6          -1.7740     0.0060     1.1980 ha         1 I4B       0.129500
     16 H1'1        -1.7010     0.5110    -1.1730 hc         1 I4B       0.048700
     17 H1'2        -0.1690     0.5110    -2.0590 hc         1 I4B       0.048700
     18 H2'         -1.5940    -1.9520    -0.9910 hc         1 I4B       0.052700
     19 H3'1        -2.0130    -2.4610    -3.3480 hc         1 I4B       0.034367
     20 H3'2        -2.6900    -0.8740    -2.9580 hc         1 I4B       0.034367
     21 H3'3        -1.1620    -0.9920    -3.8410 hc         1 I4B       0.034367
     22 H4'1         0.7280    -2.4330    -0.9610 hc         1 I4B       0.034367
     23 H4'2         1.0250    -1.5060    -2.4370 hc         1 I4B       0.034367
     24 H4'3         0.1770    -3.0560    -2.5220 hc         1 I4B       0.034367
@<TRIPOS>BOND
     1     1     2 ar
     2     1     6 ar
     3     1     7 1
     4     2     3 ar
     5     2    11 1
     6     3     4 ar
     7     3    12 1
     8     4     5 ar
     9     4    13 1
    10     5     6 ar
    11     5    14 1
    12     6    15 1
    13     7     8 1
    14     7    16 1
    15     7    17 1
    16     8     9 1
    17     8    10 1
    18     8    18 1
    19     9    19 1
    20     9    20 1
    21     9    21 1
    22    10    22 1
    23    10    23 1
    24    10    24 1
@<TRIPOS>SUBSTRUCTURE
     1 I4B         1 TEMP              0 ****  ****    0 ROOT
