@<TRIPOS>MOLECULE
I4B
   24    24     1     0     0
SMALL
bcc


@<TRIPOS>ATOM
      1 C1          0.1160   -0.0110   -0.0200 ca        1 I4B     -0.075300
      2 C2          1.5060    0.1000    0.1100 ca        1 I4B     -0.128500
      3 C3          2.0940    0.1340    1.3740 ca        1 I4B     -0.128500
      4 C4          1.3010    0.0550    2.5180 ca        1 I4B     -0.134000
      5 C5         -0.0840   -0.0570    2.3960 ca        1 I4B     -0.128500
      6 C6         -0.6740   -0.0900    1.1340 ca        1 I4B     -0.128500
      7 C1'        -0.5210   -0.0340   -1.3650 c3        1 I4B     -0.036100
      8 C2'        -0.9500   -1.4380   -1.7820 c3        1 I4B     -0.063700
      9 C3'        -1.9090   -1.3630   -2.9510 c3        1 I4B     -0.091100
     10 C4'         0.2510   -2.2890   -2.1370 c3        1 I4B     -0.091100
     11 H2          2.1350    0.1610   -0.7900 ha        1 I4B      0.131000
     12 H3          3.1860    0.2220    1.4670 ha        1 I4B      0.130000
     13 H4          1.7660    0.0830    3.5140 ha        1 I4B      0.130000
     14 H5         -0.7130   -0.1190    3.2960 ha        1 I4B      0.130000
     15 H6         -1.7660   -0.1780    1.0380 ha        1 I4B      0.131000
     16 H1'1       -1.4250    0.6340   -1.3520 hc        1 I4B      0.048200
     17 H1'2        0.1860    0.3780   -2.1340 hc        1 I4B      0.048200
     18 H2'        -1.4820   -1.9150   -0.9110 hc        1 I4B      0.050700
     19 H3'1       -2.8310   -0.8010   -2.6670 hc        1 I4B      0.034700
     20 H3'2       -2.2040   -2.3900   -3.2730 hc        1 I4B      0.034700
     21 H3'3       -1.4320   -0.8440   -3.8180 hc        1 I4B      0.034700
     22 H4'1       -0.0630   -3.3440   -2.3210 hc        1 I4B      0.034700
     23 H4'2        0.9940   -2.2750   -1.3030 hc        1 I4B      0.034700
     24 H4'3        0.7480   -1.9020   -3.0600 hc        1 I4B      0.034700
@<TRIPOS>BOND
     1    1    2 ar  
     2    1    6 ar  
     3    1    7 1   
     4    2    3 ar  
     5    2   11 1   
     6    3    4 ar  
     7    3   12 1   
     8    4    5 ar  
     9    4   13 1   
    10    5    6 ar  
    11    5   14 1   
    12    6   15 1   
    13    7    8 1   
    14    7   16 1   
    15    7   17 1   
    16    8    9 1   
    17    8   10 1   
    18    8   18 1   
    19    9   19 1   
    20    9   20 1   
    21    9   21 1   
    22   10   22 1   
    23   10   23 1   
    24   10   24 1   
@<TRIPOS>SUBSTRUCTURE
     1 I4B         1 TEMP              0 ****  ****    0 ROOT
