@<TRIPOS>MOLECULE
I4C
   27    27     1     0     0
SMALL
bcc


@<TRIPOS>ATOM
      1 C1         -0.0760    0.0970   -0.0650 c3        1 I4C      0.135100
      2 C2          1.4580    0.2190   -0.0020 c3        1 I4C      0.097600
      3 C3          1.9830    0.1830    1.4440 c3        1 I4C      0.111100
      4 C4          1.4540   -1.0500    2.2110 c3        1 I4C      0.169100
      5 C5         -0.0860   -1.0710    2.1720 c3        1 I4C      0.111100
      6 C6         -0.5590   -1.1360    0.7070 c3        1 I4C      0.097600
      7 O1         -0.4950    0.0580   -1.4220 oh        1 I4C     -0.617800
      8 O2          2.0190   -0.8040   -0.8140 oh        1 I4C     -0.639300
      9 O3          3.3940    0.1650    1.3650 oh        1 I4C     -0.683800
     10 O4          1.9030   -1.0230    3.5070 os        1 I4C     -0.552200
     11 O5         -0.6220   -2.1880    2.8480 oh        1 I4C     -0.683800
     12 O6         -1.9810   -1.1770    0.6310 oh        1 I4C     -0.639300
     13 P4          2.8720   -2.4220    3.8820 p5        1 I4C      1.321900
     14 O41         1.8220   -3.4720    3.6130 o         1 I4C     -0.914167
     15 O42         3.8960   -2.2450    2.7850 o         1 I4C     -0.914167
     16 O43         3.3260   -2.2320    5.2920 o         1 I4C     -0.914167
     17 H1         -0.5540    1.0240    0.3510 h1        1 I4C      0.061700
     18 H2          1.7540    1.1930   -0.4860 h1        1 I4C      0.037200
     19 H3          1.6740    1.1280    1.9670 h1        1 I4C      0.026700
     20 H4          1.8260   -1.9800    1.6750 h1        1 I4C      0.058700
     21 H5         -0.5110   -0.1520    2.6610 h1        1 I4C      0.026700
     22 H6         -0.1540   -2.0670    0.2170 h1        1 I4C      0.037200
     23 HO1        -0.0630   -0.7110   -1.8150 ho        1 I4C      0.404000
     24 HO2         2.6790   -1.2680   -0.2730 ho        1 I4C      0.428000
     25 HO3         3.7190   -0.5700    1.9520 ho        1 I4C      0.502000
     26 HO5         0.1380   -2.7020    3.2320 ho        1 I4C      0.502000
     27 HO6        -2.2640   -1.7230    1.3770 ho        1 I4C      0.428000
@<TRIPOS>BOND
     1    1    2 1   
     2    1    6 1   
     3    1    7 1   
     4    1   17 1   
     5    2    3 1   
     6    2    8 1   
     7    2   18 1   
     8    3    4 1   
     9    3    9 1   
    10    3   19 1   
    11    4    5 1   
    12    4   10 1   
    13    4   20 1   
    14    5    6 1   
    15    5   11 1   
    16    5   21 1   
    17    6   12 1   
    18    6   22 1   
    19    7   23 1   
    20    8   24 1   
    21    9   25 1   
    22   10   13 1   
    23   11   26 1   
    24   12   27 1   
    25   13   14 1   
    26   13   15 1   
    27   13   16 1   
@<TRIPOS>SUBSTRUCTURE
     1 I4C         1 TEMP              0 ****  ****    0 ROOT
