@<TRIPOS>MOLECULE
molecule
   27    27     1     0     0
SMALL
bcc


@<TRIPOS>ATOM
      1 C1           0.0000     0.0000     0.0000 c3         1 I4C       0.121100
      2 C2           1.5300     0.0000     0.0000 c3         1 I4C       0.113600
      3 C3           2.0400     0.0000     1.4430 c3         1 I4C       0.127600
      4 C4           1.5290    -1.2490     2.1640 c3         1 I4C       0.232100
      5 C5          -0.0000    -1.2490     2.1640 c3         1 I4C       0.127600
      6 C6          -0.5100    -1.2490     0.7210 c3         1 I4C       0.113600
      7 O1          -0.4760     0.0000    -1.3470 oh         1 I4C      -0.611800
      8 O2           2.0060    -1.1670    -0.6730 oh         1 I4C      -0.597800
      9 O3           3.4690    -0.0000     1.4430 oh         1 I4C      -0.535300
     10 O4           2.0050    -1.2500     3.5110 os         1 I4C      -0.554200
     11 O5          -0.4780    -2.4160     2.8370 oh         1 I4C      -0.535300
     12 O6          -1.9400    -1.2490     0.7210 oh         1 I4C      -0.597800
     13 P4           2.9340    -2.4190     4.1130 p5         1 I4C       1.167900
     14 O41          2.2670    -3.7260     3.9220 o          1 I4C      -0.902500
     15 O42          4.3530    -2.4240     3.3510 o          1 I4C      -0.902500
     16 O43          3.1690    -2.1620     5.6850 o          1 I4C      -0.902500
     17 H1          -0.3590     0.8830     0.5150 h1         1 I4C       0.029700
     18 H2           1.8890     0.8870    -0.5080 h1         1 I4C       0.040700
     19 H3           1.6750     0.8830     1.9530 h1         1 I4C       0.016200
     20 H4           1.8880    -2.1330     1.6490 h1         1 I4C       0.090700
     21 H5          -0.3590    -0.3620     2.6710 h1         1 I4C       0.016200
     22 H6          -0.1450    -2.1320     0.2110 h1         1 I4C       0.040700
     23 HO1         -0.8750     0.8330    -1.5390 ho         1 I4C       0.378000
     24 HO2          2.5270    -0.9110    -1.4160 ho         1 I4C       0.389000
     25 HO3          3.7830     0.8680     1.6330 ho         1 I4C       0.373500
     26 HO5         -1.1540    -2.1720     3.4460 ho         1 I4C       0.373500
     27 HO6         -2.2540    -2.0060     0.2550 ho         1 I4C       0.389000
@<TRIPOS>BOND
     1     1     2 1
     2     1     6 1
     3     1     7 1
     4     2     3 1
     5     2     8 1
     6     3     4 1
     7     3     9 1
     8     4    10 1
     9     4     5 1
    10     5     6 1
    11     5    11 1
    12     6    12 1
    13    10    13 1
    14    13    14 1
    15    13    15 1
    16    13    16 1
    17     1    17 1
    18     2    18 1
    19     3    19 1
    20     4    20 1
    21     5    21 1
    22     6    22 1
    23     7    23 1
    24     8    24 1
    25     9    25 1
    26    11    26 1
    27    12    27 1
@<TRIPOS>SUBSTRUCTURE
     1 I4C         1 TEMP              0 ****  ****    0 ROOT
