@<TRIPOS>MOLECULE
molecule
   27    27     1     0     0
SMALL
bcc


@<TRIPOS>ATOM
      1 O5           0.0000     0.0000     0.0000 oh         1 I4D      -0.535300
      2 C5           1.4290     0.0000     0.0000 c3         1 I4D       0.127600
      3 C6           1.9390     0.0000     1.4430 c3         1 I4D       0.113600
      4 O6           1.4630    -1.1660     2.1160 oh         1 I4D      -0.597300
      5 C4           1.9390     1.2490    -0.7210 c3         1 I4D       0.233100
      6 O4           1.4620     1.2490    -2.0680 os         1 I4D      -0.554200
      7 P4           0.5340     2.4180    -2.6700 p5         1 I4D       1.167900
      8 O43          0.0810     2.0280    -4.1650 o          1 I4D      -0.902500
      9 O42         -0.6660     2.5830    -1.8190 o          1 I4D      -0.902500
     10 O41          1.3620     3.7990    -2.7030 o          1 I4D      -0.902500
     11 C3           3.4690     1.2490    -0.7210 c3         1 I4D       0.127600
     12 O3           3.9450     2.4160    -1.3950 oh         1 I4D      -0.535300
     13 C2           3.9790     1.2490     0.7210 c3         1 I4D       0.113600
     14 O2           3.5020     2.4160     1.3940 oh         1 I4D      -0.597300
     15 C1           3.4690     0.0010     1.4420 c3         1 I4D       0.121100
     16 O1           3.9450     0.0000     2.7890 oh         1 I4D      -0.612800
     17 H5          -0.3140    -0.8500    -0.2590 ho         1 I4D       0.373500
     18 HA           1.7950    -0.8830    -0.5100 h1         1 I4D       0.016200
     19 H6           1.5790     0.8870     1.9500 h1         1 I4D       0.040700
     20 H4           1.5800     2.1320    -0.2070 h1         1 I4D       0.090700
     21 HB           0.9590    -0.9100     2.8710 ho         1 I4D       0.389000
     22 H1           3.8280    -0.8820     0.9280 h1         1 I4D       0.029700
     23 H3           3.8280     0.3620    -1.2290 h1         1 I4D       0.016200
     24 HC           4.6690     2.1830    -1.9530 ho         1 I4D       0.373500
     25 H2           5.0620     1.2460     0.7190 h1         1 I4D       0.040700
     26 HD           4.2350     2.9280     1.6940 ho         1 I4D       0.389000
     27 HE           4.5830    -0.6860     2.8970 ho         1 I4D       0.378000
@<TRIPOS>BOND
     1     1     2 1
     2     2     3 1
     3     2     5 1
     4     3     4 1
     5     3    15 1
     6     5     6 1
     7     5    11 1
     8     6     7 1
     9     7     8 1
    10     7     9 1
    11     7    10 1
    12    11    12 1
    13    11    13 1
    14    13    14 1
    15    13    15 1
    16    15    16 1
    17     1    17 1
    18     2    18 1
    19     3    19 1
    20     5    20 1
    21     4    21 1
    22    15    22 1
    23    11    23 1
    24    12    24 1
    25    13    25 1
    26    14    26 1
    27    16    27 1
@<TRIPOS>SUBSTRUCTURE
     1 I4D         1 TEMP              0 ****  ****    0 ROOT
