@<TRIPOS>MOLECULE
I4D
   27    27     1     0     0
SMALL
bcc


@<TRIPOS>ATOM
      1 O5          0.1540   -0.2740   -0.0190 oh        1 I4D     -0.683800
      2 C5          1.5620   -0.1760   -0.0110 c3        1 I4D      0.111100
      3 C6          2.0180   -0.0780    1.4570 c3        1 I4D      0.097600
      4 O6          1.5550   -1.1940    2.2110 oh        1 I4D     -0.639300
      5 C4          2.0650    1.0570   -0.7850 c3        1 I4D      0.169100
      6 O4          1.6450    1.0110   -2.0910 os        1 I4D     -0.552200
      7 P4          0.6320    2.3720   -2.4900 p5        1 I4D      1.321900
      8 O43         0.2970    2.2150   -3.9370 o         1 I4D     -0.913833
      9 O42        -0.4590    2.1130   -1.4800 o         1 I4D     -0.913833
     10 O41         1.6110    3.4580   -2.1110 o         1 I4D     -0.913833
     11 C3          3.6080    1.1220   -0.7300 c3        1 I4D      0.111100
     12 O3          4.0900    2.3040   -1.3330 oh        1 I4D     -0.683800
     13 C2          4.1220    1.1210    0.7200 c3        1 I4D      0.097600
     14 O2          3.8270    2.3300    1.4060 oh        1 I4D     -0.639300
     15 C1          3.5490   -0.0500    1.5400 c3        1 I4D      0.135100
     16 O1          3.9960    0.0450    2.8850 oh        1 I4D     -0.617800
     17 H5         -0.1980    0.4800   -0.5650 ho        1 I4D      0.501500
     18 HA          1.9630   -1.1230   -0.4640 h1        1 I4D      0.026700
     19 H6          1.6010    0.8590    1.9230 h1        1 I4D      0.037200
     20 H4          1.6590    1.9820   -0.2650 h1        1 I4D      0.058700
     21 HB          0.6710   -1.3880    1.8690 ho        1 I4D      0.428000
     22 H1          3.9730   -1.0230    1.1700 h1        1 I4D      0.061700
     23 H3          4.0530    0.2450   -1.2740 h1        1 I4D      0.026700
     24 HC          3.3200    2.7490   -1.7810 ho        1 I4D      0.501500
     25 H2          5.2470    1.0340    0.7210 h1        1 I4D      0.037200
     26 HD          3.4120    2.9280    0.7640 ho        1 I4D      0.428000
     27 HE          3.6780    0.8960    3.2130 ho        1 I4D      0.404000
@<TRIPOS>BOND
     1    1    2 1   
     2    1   17 1   
     3    2    3 1   
     4    2    5 1   
     5    2   18 1   
     6    3    4 1   
     7    3   15 1   
     8    3   19 1   
     9    4   21 1   
    10    5    6 1   
    11    5   11 1   
    12    5   20 1   
    13    6    7 1   
    14    7    8 1   
    15    7    9 1   
    16    7   10 1   
    17   11   12 1   
    18   11   13 1   
    19   11   23 1   
    20   12   24 1   
    21   13   14 1   
    22   13   15 1   
    23   13   25 1   
    24   14   26 1   
    25   15   16 1   
    26   15   22 1   
    27   16   27 1   
@<TRIPOS>SUBSTRUCTURE
     1 I4D         1 TEMP              0 ****  ****    0 ROOT
