@<TRIPOS>MOLECULE
molecule
   70    72     1     0     0
SMALL
bcc


@<TRIPOS>ATOM
      1 C            0.0000     0.0000     0.0000 c          1 I4I       0.683100
      2 N            1.9870     1.1930    -0.7070 ns         1 I4I      -0.567900
      3 O           -0.5780    -1.0600    -0.0460 o          1 I4I      -0.580100
      4 CA           1.5150     0.0000     0.0000 c3         1 I4I       0.015700
      5 CB           2.0380     0.0000     1.4350 c3         1 I4I       0.127100
      6 CAD         -3.5630    -0.8270     0.5310 c3         1 I4I      -0.095100
      7 OAG         -1.4160     1.4530     2.1980 o          1 I4I      -0.553000
      8 OAH          0.8500    -1.9810     2.6550 o          1 I4I      -0.520000
      9 OAJ         -4.2140     1.5670    -0.8810 oh         1 I4I      -0.602800
     10 CAK          1.2860     0.1890    -3.8550 ca         1 I4I      -0.248300
     11 CAL          4.6380     4.6810    -3.1390 ca         1 I4I      -0.191300
     12 CAM          1.1270     1.2210    -4.7590 ca         1 I4I       0.409200
     13 CAN          3.4980     4.6650    -2.3480 ca         1 I4I       0.381200
     14 CAO          0.2820    -0.0590    -2.9300 ca         1 I4I      -0.092000
     15 CAP          5.3250     3.5020    -3.3650 ca         1 I4I      -0.193000
     16 CAQ         -0.9360     1.7570    -3.8850 ca         1 I4I       0.415200
     17 CAR         -1.9650     0.5130    -1.9670 c3         1 I4I      -0.050100
     18 NAS          0.0380     1.9650    -4.7500 nb         1 I4I      -0.693000
     19 NAT          3.0600     3.5480    -1.8120 nb         1 I4I      -0.653000
     20 NAV         -0.6230     1.2060     0.0150 ns         1 I4I      -0.602900
     21 OAX         -2.0290    -0.5830     2.8530 os         1 I4I      -0.407900
     22 CAY          3.1570     1.1600    -1.3760 c          1 I4I       0.580600
     23 CBA         -2.1620     0.5150     2.0940 c          1 I4I       0.661100
     24 CBB          0.3640    -0.8940     2.8760 c          1 I4I       0.607100
     25 CBC         -0.8470     0.7440    -2.9510 ca         1 I4I      -0.212600
     26 CBD          4.8430     2.3310    -2.7860 ca         1 I4I       0.071800
     27 CBE          3.6860     2.3910    -2.0000 ca         1 I4I       0.338800
     28 CBF         -0.7490     0.3260     4.7430 c3         1 I4I      -0.116700
     29 CBH         -3.2990     0.5620     1.1010 c3         1 I4I      -0.121700
     30 CBI         -3.0850     1.5990     0.0170 c3         1 I4I       0.151100
     31 CBJ         -1.8120     1.4720    -0.7900 c3         1 I4I       0.130700
     32 CBL         -0.8870    -0.7870     3.7070 c3         1 I4I       0.138100
     33 OG1          0.9360     0.2060     2.3600 os         1 I4I      -0.417900
     34 CG2          3.0730     1.1110     1.6090 c3         1 I4I      -0.089100
     35 HN           1.4590     2.0420    -0.6650 hn         1 I4I       0.341500
     36 HA           1.8730    -0.8850    -0.5120 h1         1 I4I       0.122700
     37 HB           2.5040    -0.9560     1.6430 h1         1 I4I       0.091700
     38 HAA         -2.8430     0.7170     5.0290 hc         1 I4I       0.040200
     39 HAAA        -2.2150    -0.6280     5.9910 hc         1 I4I       0.040200
     40 HAAB        -1.8410     1.0380     6.4510 hc         1 I4I       0.040200
     41 HAB          0.3620     0.5740     6.5650 hc         1 I4I       0.040200
     42 HABA         1.3650     0.4170     5.1160 hc         1 I4I       0.040200
     43 HABB         0.5660    -1.0070     5.7970 hc         1 I4I       0.040200
     44 HAD         -4.0460    -0.7360    -0.4340 hc         1 I4I       0.058700
     45 HADA        -4.2060    -1.3780     1.2060 hc         1 I4I       0.058700
     46 HADB        -2.6240    -1.3550     0.4160 hc         1 I4I       0.058700
     47 HOAI         6.3940     1.3140    -3.1620 ho         1 I4I       0.421000
     48 HOAJ        -4.7660     2.3130    -0.7190 ho         1 I4I       0.406000
     49 HAL          4.9870     5.6090    -3.5760 ha         1 I4I       0.144000
     50 HAM          1.9070     1.4210    -5.4850 h4         1 I4I       0.020100
     51 HAN          2.9590     5.5880    -2.1710 h4         1 I4I       0.030100
     52 HAO          0.3790    -0.8620    -2.2080 ha         1 I4I       0.153000
     53 HAP          6.2170     3.4890    -3.9800 ha         1 I4I       0.146000
     54 HAQ         -1.8150     2.3890    -3.9080 h4         1 I4I       0.020100
     55 HAR         -1.9250    -0.5080    -1.6080 hc         1 I4I       0.086200
     56 HARA        -2.9170     0.6880    -2.4540 hc         1 I4I       0.086200
     57 HNAV        -0.2540     1.9360     0.5920 hn         1 I4I       0.352500
     58 HBF         -0.6310     1.2770     4.2380 hc         1 I4I       0.095700
     59 HBH         -4.1870     0.8550     1.6480 hc         1 I4I       0.070700
     60 HBI         -3.0730     2.5710     0.4950 h1         1 I4I       0.039700
     61 HBJ         -1.6500     2.4480    -1.2310 h1         1 I4I       0.048700
     62 HBL         -1.0230    -1.7240     4.2340 h1         1 I4I       0.117700
     63 HG2          2.6180     2.0670     1.3810 hc         1 I4I       0.052033
     64 HG2A         3.4290     1.1150     2.6320 hc         1 I4I       0.052033
     65 HG2B         3.9050     0.9380     0.9370 hc         1 I4I       0.052033
     66 HAK          2.1830    -0.4180    -3.8680 ha         1 I4I       0.151000
     67 CAA         -2.0040     0.3660     5.6170 c3         1 I4I      -0.088100
     68 CAB          0.4750     0.0580     5.6190 c3         1 I4I      -0.088100
     69 OAE          3.7770     0.1190    -1.4670 o          1 I4I      -0.589100
     70 OAI          5.4830     1.1510    -2.9800 oh         1 I4I      -0.453100
@<TRIPOS>BOND
     1     1     3 2
     2     1     4 1
     3     1    20 1
     4     2     4 1
     5     2    22 1
     6     4     5 1
     7     5    33 1
     8     5    34 1
     9    67    28 1
    10    68    28 1
    11     6    29 1
    12    69    22 2
    13     7    23 2
    14     8    24 2
    15    70    26 1
    16     9    30 1
    17    10    12 ar
    18    10    14 ar
    19    11    13 ar
    20    11    15 ar
    21    12    18 ar
    22    13    19 ar
    23    14    25 ar
    24    15    26 ar
    25    16    18 ar
    26    16    25 ar
    27    17    25 1
    28    17    31 1
    29    19    27 ar
    30    20    31 1
    31    21    23 1
    32    21    32 1
    33    22    27 1
    34    23    29 1
    35    24    32 1
    36    24    33 1
    37    26    27 ar
    38    28    32 1
    39    29    30 1
    40    30    31 1
    41     2    35 1
    42     4    36 1
    43     5    37 1
    44    67    38 1
    45    67    39 1
    46    67    40 1
    47    68    41 1
    48    68    42 1
    49    68    43 1
    50     6    44 1
    51     6    45 1
    52     6    46 1
    53    70    47 1
    54     9    48 1
    55    10    66 1
    56    11    49 1
    57    12    50 1
    58    13    51 1
    59    14    52 1
    60    15    53 1
    61    16    54 1
    62    17    55 1
    63    17    56 1
    64    20    57 1
    65    28    58 1
    66    29    59 1
    67    30    60 1
    68    31    61 1
    69    32    62 1
    70    34    63 1
    71    34    64 1
    72    34    65 1
@<TRIPOS>SUBSTRUCTURE
     1 I4I         1 TEMP              0 ****  ****    0 ROOT
