@<TRIPOS>MOLECULE
I4P
   36    36     1     0     0
SMALL
bcc


@<TRIPOS>ATOM
      1 O41        -0.4140    1.6010   -0.9400 o         1 I4P     -0.980583
      2 P1          0.6960    1.5020    0.0960 p5        1 I4P      1.383650
      3 O21         0.6310    2.7060    1.0190 o         1 I4P     -0.980583
      4 O31         0.6120    0.1930    0.8540 o         1 I4P     -0.980583
      5 O11         2.1890    1.6850   -0.7370 os        1 I4P     -0.630950
      6 C1          3.5110    1.2000   -0.6690 c3        1 I4P      0.237850
      7 C2          4.3200    2.0090    0.4080 c3        1 I4P      0.088100
      8 O16         3.7580    3.3010    0.6040 oh        1 I4P     -0.656800
      9 C3          5.8720    2.1810    0.1960 c3        1 I4P      0.237850
     10 O15         6.4720    2.7410    1.3210 os        1 I4P     -0.630950
     11 P5          7.3250    1.9470    2.5690 p5        1 I4P      1.383650
     12 O45         6.3250    1.3650    3.5560 o         1 I4P     -0.980583
     13 O25         8.2420    0.8660    2.0290 o         1 I4P     -0.980583
     14 O35         8.1190    3.0420    3.2770 o         1 I4P     -0.980583
     15 C4          5.9880    3.0070   -1.1380 c3        1 I4P      0.237850
     16 O14         7.2750    3.4340   -1.4930 os        1 I4P     -0.630950
     17 P4          7.7650    4.9300   -2.1380 p5        1 I4P      1.383650
     18 O44         9.2900    4.9180   -2.0860 o         1 I4P     -0.980583
     19 O24         7.2060    6.1430   -1.4190 o         1 I4P     -0.980583
     20 O34         7.3140    4.9230   -3.5930 o         1 I4P     -0.980583
     21 C5          5.4600    2.0290   -2.2640 c3        1 I4P      0.088100
     22 O13         5.2680    2.7820   -3.4640 oh        1 I4P     -0.656800
     23 C6          4.1310    1.1950   -2.1210 c3        1 I4P      0.237850
     24 O12         4.3810   -0.1320   -2.5150 os        1 I4P     -0.630950
     25 P2          4.0730   -1.0190   -3.9470 p5        1 I4P      1.383650
     26 O42         3.4820   -2.3450   -3.4810 o         1 I4P     -0.980583
     27 O22         3.1360   -0.3060   -4.9030 o         1 I4P     -0.980583
     28 O32         5.4150   -1.3040   -4.6090 o         1 I4P     -0.980583
     29 H1          3.5130    0.1240   -0.3270 h1        1 I4P      0.017950
     30 H2          4.1850    1.4420    1.3780 h1        1 I4P      0.012700
     31 H16         2.7920    3.1890    0.5400 ho        1 I4P      0.421000
     32 H3          6.3090    1.1560    0.0270 h1        1 I4P      0.017950
     33 H4          5.3190    3.9070   -1.0660 h1        1 I4P      0.017950
     34 H5          6.2960    1.2940   -2.4430 h1        1 I4P      0.012700
     35 H13         6.0030    3.4210   -3.5080 ho        1 I4P      0.421000
     36 H6          3.3680    1.6550   -2.8120 h1        1 I4P      0.017950
@<TRIPOS>BOND
     1    1    2 1   
     2    2    3 1   
     3    2    4 1   
     4    2    5 1   
     5    5    6 1   
     6    6    7 1   
     7    6   23 1   
     8    6   29 1   
     9    7    8 1   
    10    7    9 1   
    11    7   30 1   
    12    8   31 1   
    13    9   10 1   
    14    9   15 1   
    15    9   32 1   
    16   10   11 1   
    17   11   12 1   
    18   11   13 1   
    19   11   14 1   
    20   15   16 1   
    21   15   21 1   
    22   15   33 1   
    23   16   17 1   
    24   17   18 1   
    25   17   19 1   
    26   17   20 1   
    27   21   22 1   
    28   21   23 1   
    29   21   34 1   
    30   22   35 1   
    31   23   24 1   
    32   23   36 1   
    33   24   25 1   
    34   25   26 1   
    35   25   27 1   
    36   25   28 1   
@<TRIPOS>SUBSTRUCTURE
     1 I4P         1 TEMP              0 ****  ****    0 ROOT
