@<TRIPOS>MOLECULE
molecule
   36    36     1     0     0
SMALL
bcc


@<TRIPOS>ATOM
      1 O41          0.0000     0.0000     0.0000 o          1 I4P      -0.969250
      2 P1           1.6100     0.0000     0.0000 p5         1 I4P       1.247650
      3 O21          2.1030     0.0000     1.3960 o          1 I4P      -0.969250
      4 O31          2.1470    -1.3130    -0.7590 o          1 I4P      -0.969250
      5 O11          2.1470     1.3160    -0.7580 os         1 I4P      -0.521700
      6 C1           3.5690     1.3190    -0.6220 c3         1 I4P       0.158850
      7 C2           4.0090     2.5890     0.1110 c3         1 I4P       0.121100
      8 O16          3.5980     3.7360    -0.6360 oh         1 I4P      -0.548300
      9 C3           5.5310     2.5930     0.2560 c3         1 I4P       0.158850
     10 O15          5.9410     3.7780     0.9410 os         1 I4P      -0.521700
     11 P5           6.7000     3.3040     2.2800 p5         1 I4P       1.247650
     12 O45          5.8150     2.4090     3.0570 o          1 I4P      -0.969250
     13 O25          8.0460     2.5160     1.8830 o          1 I4P      -0.969250
     14 O35          7.0760     4.5920     3.1680 o          1 I4P      -0.969250
     15 C4           6.1760     2.5560    -1.1300 c3         1 I4P       0.158850
     16 O14          7.5990     2.5600    -0.9950 os         1 I4P      -0.521700
     17 P4           8.1350     3.8750    -1.7530 p5         1 I4P       1.247650
     18 O44          9.7230     4.0140    -1.5280 o          1 I4P      -0.969250
     19 O24          7.4530     5.0700    -1.2080 o          1 I4P      -0.969250
     20 O34          7.8250     3.7500    -3.3270 o          1 I4P      -0.969250
     21 C5           5.7370     1.2870    -1.8630 c3         1 I4P       0.121100
     22 O13          6.3400     1.2520    -3.1590 oh         1 I4P      -0.548300
     23 C6           4.2140     1.2830    -2.0090 c3         1 I4P       0.158850
     24 O12          3.8050     0.0970    -2.6940 os         1 I4P      -0.521700
     25 P2           3.0450     0.5710    -4.0310 p5         1 I4P       1.247650
     26 O42          2.6690    -0.7170    -4.9210 o          1 I4P      -0.969250
     27 O22          1.7000     1.3610    -3.6340 o          1 I4P      -0.969250
     28 O32          3.9300     1.4660    -4.8100 o          1 I4P      -0.969250
     29 H1           3.8850     0.4500    -0.0570 h1         1 I4P       0.073700
     30 H2           3.5540     2.6110     1.0950 h1         1 I4P       0.010200
     31 H16          3.0200     4.2640    -0.1100 ho         1 I4P       0.315000
     32 H3           5.8410     1.7210     0.8190 h1         1 I4P       0.073700
     33 H4           5.8600     3.4240    -1.6960 h1         1 I4P       0.073700
     34 H5           6.0460     0.4180    -1.2930 h1         1 I4P       0.010200
     35 H13          6.8610     0.4710    -3.2430 ho         1 I4P       0.315000
     36 H6           3.9050     2.1550    -2.5720 h1         1 I4P       0.073700
@<TRIPOS>BOND
     1     1     2 1
     2     2     3 1
     3     2     4 1
     4     2     5 1
     5     5     6 1
     6     6     7 1
     7     6    23 1
     8     6    29 1
     9     7     8 1
    10     7     9 1
    11     7    30 1
    12     8    31 1
    13     9    10 1
    14     9    15 1
    15     9    32 1
    16    10    11 1
    17    11    12 1
    18    11    13 1
    19    11    14 1
    20    15    16 1
    21    15    21 1
    22    15    33 1
    23    16    17 1
    24    17    18 1
    25    17    19 1
    26    17    20 1
    27    21    22 1
    28    21    23 1
    29    21    34 1
    30    22    35 1
    31    23    24 1
    32    23    36 1
    33    24    25 1
    34    25    26 1
    35    25    27 1
    36    25    28 1
@<TRIPOS>SUBSTRUCTURE
     1 I4P         1 TEMP              0 ****  ****    0 ROOT
