@<TRIPOS>MOLECULE
molecule
   52    53     1     0     0
SMALL
bcc


@<TRIPOS>ATOM
      1 C1           0.0000     0.0000     0.0000 c2         1 I50       0.683100
      2 O5           0.0210     0.0040    -2.4170 os         1 I50      -0.127100
      3 C7           0.0490     0.0090    -4.8340 c3         1 I50       0.130000
      4 C9           1.6370    -1.4710    -5.9410 c          1 I50       0.663100
      5 C11          2.4110    -2.7620    -6.0160 c3         1 I50      -0.106100
      6 C12          3.2650    -2.7630    -7.2570 ca         1 I50      -0.058300
      7 C13          4.5530    -2.2620    -7.2100 ca         1 I50       0.070900
      8 C14          5.3400    -2.2640    -8.3570 ca         1 I50       0.159600
      9 C15          4.8300    -2.7700    -9.5450 ca         1 I50      -0.179000
     10 C16          3.5420    -3.2680    -9.5860 ca         1 I50      -0.074000
     11 C21          7.4720    -1.7610    -9.5220 c3         1 I50      -0.015200
     12 C24          8.8410    -1.1580    -9.2040 c3         1 I50       0.224900
     13 C27         11.2330    -4.1040   -11.4090 ca         1 I50      -0.116500
     14 C30         10.6640    -1.5680   -10.4670 ca         1 I50      -0.130500
     15 N2           1.3030     0.0000     0.0000 n2         1 I50      -0.793100
     16 N3          -0.6870     0.0000     1.1900 nz         1 I50      -0.752600
     17 N4          -0.6870     0.0040    -1.1910 nu         1 I50      -0.731700
     18 C6          -0.8190     0.0100    -3.5730 c3         1 I50       0.084400
     19 N8           0.8010    -1.2460    -4.9070 ns         1 I50      -0.607900
     20 O10          1.7670    -0.6340    -6.8090 o          1 I50      -0.570100
     21 C17          2.7620    -3.2700    -8.4430 ca         1 I50       0.003400
     22 Cl18         1.1470    -3.9040    -8.4970 cl         1 I50      -0.112400
     23 F19          5.0470    -1.7710    -6.0520 f          1 I50      -0.145900
     24 N20          6.6440    -1.7580    -8.3130 nu         1 I50      -0.788600
     25 C25         10.1530    -2.6770    -9.8190 ca         1 I50       0.118700
     26 C26         10.4380    -3.9450   -10.2890 ca         1 I50      -0.130500
     27 C28         11.7430    -2.9940   -12.0590 ca         1 I50      -0.132000
     28 C29         11.4590    -1.7260   -11.5870 ca         1 I50      -0.116500
     29 F31          8.6790     0.1570    -8.7530 f          1 I50      -0.224300
     30 F32          9.4660    -1.9180    -8.2090 f          1 I50      -0.224300
     31 H71          0.7400     0.8420    -4.7980 h1         1 I50       0.084700
     32 H72         -0.5840     0.1020    -5.7080 h1         1 I50       0.084700
     33 H111         3.0440    -2.8550    -5.1420 hc         1 I50       0.078200
     34 H112         1.7200    -3.5950    -6.0520 hc         1 I50       0.078200
     35 H15          5.4400    -2.7700   -10.4410 ha         1 I50       0.149000
     36 H16          3.1450    -3.6640   -10.5120 ha         1 I50       0.152000
     37 H211         7.4070    -1.9710   -10.5830 h1         1 I50       0.155700
     38 H212         7.3440    -2.6810    -8.9640 h1         1 I50       0.155700
     39 HN2          1.8050     0.0020    -0.8660 hn         1 I50       0.496400
     40 HN31        -0.0370    -0.0220     1.9510 hn         1 I50       0.485800
     41 HN32        -1.2790    -0.8060     1.2340 hn         1 I50       0.485800
     42 HN4         -1.6880     0.0330    -1.1910 hn         1 I50       0.455800
     43 H61         -1.4490    -0.8720    -3.5670 h1         1 I50       0.057700
     44 H62         -1.4410     0.8970    -3.5640 h1         1 I50       0.057700
     45 HN8          0.6610    -1.9540    -4.2140 hn         1 I50       0.312500
     46 HN20         7.0210    -1.4200    -7.4500 hn         1 I50       0.462800
     47 H26         10.0390    -4.8140    -9.7810 ha         1 I50       0.159000
     48 H28         12.3660    -3.1190   -12.9370 ha         1 I50       0.143000
     49 H29         11.8590    -0.8570   -12.0950 ha         1 I50       0.149000
     50 H27         11.4560    -5.0980   -11.7790 ha         1 I50       0.149000
     51 H33         -1.0300     0.9210     1.3780 hn         1 I50       0.485800
     52 H30         10.1890    -0.6020   -10.3440 ha         1 I50       0.159000
@<TRIPOS>BOND
     1    22    21 1
     2    20     4 2
     3     4     5 1
     4     4    19 1
     5     3    19 1
     6     3    18 1
     7     5     6 1
     8    21     6 ar
     9    21    10 ar
    10     6     7 ar
    11    18     2 1
    12    10     9 ar
    13     7    23 1
    14     7     8 ar
    15     9     8 ar
    16     2    17 1
    17     8    24 1
    18    17     1 1
    19     1    16 1
    20     1    15 2
    21    24    11 1
    22    11    12 1
    23    13    26 ar
    24    13    27 ar
    25    26    25 ar
    26    27    28 ar
    27    25    12 1
    28    25    14 ar
    29    28    14 ar
    30    12    30 1
    31    12    29 1
    32     3    31 1
    33     3    32 1
    34     5    33 1
    35     5    34 1
    36     9    35 1
    37    10    36 1
    38    11    37 1
    39    11    38 1
    40    13    50 1
    41    14    52 1
    42    15    39 1
    43    16    40 1
    44    16    41 1
    45    17    42 1
    46    18    43 1
    47    18    44 1
    48    19    45 1
    49    24    46 1
    50    26    47 1
    51    27    48 1
    52    28    49 1
    53    51    16 1
@<TRIPOS>SUBSTRUCTURE
     1 I50         1 TEMP              0 ****  ****    0 ROOT
