@<TRIPOS>MOLECULE
I50
   51    52     1     0     0
SMALL
bcc


@<TRIPOS>ATOM
      1 C1          2.5450   -0.0520   -2.4210 c2        1 I50      0.691100
      2 O5          0.9610    0.9920   -3.8440 os        1 I50     -0.236100
      3 C7         -0.2260   -0.2850   -5.4650 c3        1 I50      0.075000
      4 C9          0.5510   -2.5930   -5.7570 c         1 I50      0.660100
      5 C11         1.7430   -3.5260   -5.9250 c3        1 I50     -0.116100
      6 C12         2.5360   -3.2490   -7.1520 ca        1 I50     -0.068300
      7 C13         3.6410   -2.3730   -7.0820 ca        1 I50      0.076900
      8 C14         4.4490   -2.0920   -8.2250 ca        1 I50      0.105600
      9 C15         4.1050   -2.7230   -9.4380 ca        1 I50     -0.138000
     10 C16         3.0240   -3.5900   -9.5100 ca        1 I50     -0.110000
     11 C21         6.7370   -1.4080   -8.7920 c3        1 I50      0.152800
     12 C24         7.8510   -2.0370   -7.8670 c3        1 I50      0.417900
     13 C27        10.5790   -3.3940  -10.1550 ca        1 I50     -0.131000
     14 C30         9.9720   -1.0320   -8.7950 ca        1 I50     -0.098500
     15 N2          2.6460   -1.0700   -3.2340 n2        1 I50     -0.858100
     16 N3          3.3800    0.1800   -1.2830 nh        1 I50     -0.936800
     17 N4          1.5030    0.9840   -2.6190 nh        1 I50     -0.509700
     18 C6         -0.2180    0.1570   -3.9960 c3        1 I50      0.106400
     19 N8          0.7920   -1.2310   -5.8260 n         1 I50     -0.532900
     20 O10        -0.5960   -3.0560   -5.5970 o         1 I50     -0.612100
     21 C17         2.2430   -3.8550   -8.3810 ca        1 I50      0.015400
     22 CL18        0.9340   -4.9250   -8.5430 cl        1 I50     -0.070400
     23 F19         3.9390   -1.7790   -5.8970 f         1 I50     -0.135900
     24 N20         5.4790   -1.1320   -8.1630 nh        1 I50     -0.708600
     25 C25         9.1250   -2.1390   -8.6910 ca        1 I50     -0.155300
     26 C26         9.4300   -3.3230   -9.3680 ca        1 I50     -0.098500
     27 C28        11.4230   -2.2890  -10.2640 ca        1 I50     -0.111000
     28 C29        11.1200   -1.1090   -9.5830 ca        1 I50     -0.131000
     29 F31         8.0180   -1.2860   -6.7170 f         1 I50     -0.236800
     30 F32         7.4520   -3.2510   -7.3420 f         1 I50     -0.236800
     31 H71        -1.2390   -0.7320   -5.6780 h1        1 I50      0.072700
     32 H72        -0.0830    0.6270   -6.1120 h1        1 I50      0.072700
     33 H111        1.3480   -4.5780   -5.9420 hc        1 I50      0.091700
     34 H112        2.3940   -3.4170   -5.0140 hc        1 I50      0.091700
     35 H15         4.6850   -2.5210  -10.3520 ha        1 I50      0.144000
     36 H16         2.7770   -4.0680  -10.4710 ha        1 I50      0.152000
     37 H211        7.1530   -0.4240   -9.1510 h1        1 I50      0.081200
     38 H212        6.6150   -2.1010   -9.6670 h1        1 I50      0.081200
     39 H30         9.7340   -0.1080   -8.2450 ha        1 I50      0.146000
     40 HN2         3.3210   -1.7610   -2.9890 hn        1 I50      0.395400
     41 HN31        3.7540   -0.6510   -0.8800 hn        1 I50      0.394800
     42 HN32        3.0090    0.7980   -0.5950 hn        1 I50      0.394800
     43 HN4         1.9620    1.8960   -2.5370 hn        1 I50      0.391800
     44 H61        -0.2050   -0.7180   -3.3000 h1        1 I50      0.059700
     45 H62        -1.1080    0.8030   -3.7840 h1        1 I50      0.059700
     46 HN8         1.7320   -0.9270   -5.6870 hn        1 I50      0.326500
     47 HN20        5.5930   -0.7480   -7.2410 hn        1 I50      0.414800
     48 H26         8.7680   -4.1970   -9.2680 ha        1 I50      0.146000
     49 H28        12.3290   -2.3480  -10.8850 ha        1 I50      0.137000
     50 H29        11.7870   -0.2390   -9.6640 ha        1 I50      0.139000
     51 H27        10.8200   -4.3270  -10.6860 ha        1 I50      0.139000
@<TRIPOS>BOND
     1    1   15 2   
     2    1   16 1   
     3    1   17 1   
     4    2   17 1   
     5    2   18 1   
     6    3   18 1   
     7    3   19 1   
     8    3   31 1   
     9    3   32 1   
    10    4    5 1   
    11    4   19 1   
    12    4   20 2   
    13    5    6 1   
    14    5   33 1   
    15    5   34 1   
    16    6    7 ar  
    17    6   21 ar  
    18    7    8 ar  
    19    7   23 1   
    20    8    9 ar  
    21    8   24 1   
    22    9   10 ar  
    23    9   35 1   
    24   10   21 ar  
    25   10   36 1   
    26   11   12 1   
    27   11   24 1   
    28   11   37 1   
    29   11   38 1   
    30   12   25 1   
    31   12   29 1   
    32   12   30 1   
    33   13   26 ar  
    34   13   27 ar  
    35   13   51 1   
    36   14   25 ar  
    37   14   28 ar  
    38   14   39 1   
    39   15   40 1   
    40   16   41 1   
    41   16   42 1   
    42   17   43 1   
    43   18   44 1   
    44   18   45 1   
    45   19   46 1   
    46   21   22 1   
    47   24   47 1   
    48   25   26 ar  
    49   26   48 1   
    50   27   28 ar  
    51   27   49 1   
    52   28   50 1   
@<TRIPOS>SUBSTRUCTURE
     1 I50         1 TEMP              0 ****  ****    0 ROOT
