@<TRIPOS>MOLECULE
molecule
   27    27     1     0     0
SMALL
bcc


@<TRIPOS>ATOM
      1 N1           0.0000     0.0000     0.0000 ns         1 I51      -0.474100
      2 O1           1.9440     0.0010    -1.0590 o          1 I51      -0.661500
      3 O2           2.0390    -0.0020     3.3780 o          1 I51      -0.620500
      4 N2           2.0400     0.0000     1.1520 ns         1 I51      -0.559500
      5 C1           1.3460     0.0000     0.0000 c          1 I51       0.807500
      6 C2           1.4020    -0.0020     2.3390 c          1 I51       0.707700
      7 C3          -0.0070     0.0100     2.3710 cc         1 I51      -0.253400
      8 C4          -0.7420     0.0220     3.6860 c3         1 I51      -0.023900
      9 C5          -0.6970     0.0050     1.1900 cd         1 I51       0.098600
     10 C11         -2.1670     0.0060     1.1890 cf         1 I51      -0.121000
     11 C12         -2.8310     0.1490     0.0450 c2         1 I51      -0.101400
     12 C13         -4.2350    -0.3850    -0.0840 c3         1 I51       0.170600
     13 C14         -2.1810     0.8450    -1.1220 c3         1 I51       0.170600
     14 O3          -4.6260    -0.9980     1.1480 oh         1 I51      -0.609800
     15 O4          -3.1330     1.7020    -1.7560 oh         1 I51      -0.609800
     16 H1          -0.4980    -0.0040    -0.8680 hn         1 I51       0.364500
     17 H2           3.0410     0.0000     1.1280 hn         1 I51       0.363500
     18 H3          -1.3030    -0.8980     3.7950 hc         1 I51       0.053367
     19 H4          -1.4230     0.8650     3.7120 hc         1 I51       0.053367
     20 H5          -0.0300     0.1090     4.4970 hc         1 I51       0.053367
     21 H6          -2.6650    -0.4860     2.0160 ha         1 I51       0.181000
     22 H7          -4.2700    -1.1200    -0.8790 h1         1 I51       0.045450
     23 H8          -4.9110     0.4290    -0.3130 h1         1 I51       0.045450
     24 H9          -1.3430     1.4350    -0.7690 h1         1 I51       0.045450
     25 H10         -1.8290     0.1070    -1.8330 h1         1 I51       0.045450
     26 H11         -5.5050    -1.3290     1.0680 ho         1 I51       0.413500
     27 H12         -2.6950     2.2410    -2.3940 ho         1 I51       0.413500
@<TRIPOS>BOND
     1     8     7 1
     2     3     6 2
     3    15    13 1
     4     7     6 1
     5     7     9 2
     6     6     4 1
     7    12    11 1
     8    12    14 1
     9    11    13 1
    10    11    10 2
    11    10     9 1
    12     9     1 1
    13     4     5 1
    14     1     5 1
    15     5     2 2
    16     1    16 1
    17     4    17 1
    18     8    18 1
    19     8    19 1
    20     8    20 1
    21    10    21 1
    22    12    22 1
    23    12    23 1
    24    13    24 1
    25    13    25 1
    26    14    26 1
    27    15    27 1
@<TRIPOS>SUBSTRUCTURE
     1 I51         1 TEMP              0 ****  ****    0 ROOT
