@<TRIPOS>MOLECULE
I51
   27    27     1     0     0
SMALL
bcc


@<TRIPOS>ATOM
      1 N1           0.0000     0.0000     0.0000 ns         1 I51      -0.085100
      2 O1           1.9440     0.0010    -1.0590 o          1 I51      -0.713500
      3 O2           2.0390    -0.0020     3.3780 o          1 I51      -0.652500
      4 N2           2.0400     0.0000     1.1520 ns         1 I51      -0.123500
      5 C1           1.3460     0.0000     0.0000 c          1 I51       0.584500
      6 C2           1.4020    -0.0020     2.3390 c          1 I51       0.611700
      7 C3          -0.0070     0.0100     2.3710 cc         1 I51      -0.216400
      8 C4          -0.7420     0.0220     3.6860 c3         1 I51       0.082100
      9 C5          -0.6970     0.0050     1.1900 cd         1 I51      -0.119400
     10 C11         -2.1670     0.0060     1.1890 cf         1 I51      -0.315000
     11 C12         -2.8310     0.1490     0.0450 c2         1 I51       0.040600
     12 C13         -4.2350    -0.3850    -0.0840 c3         1 I51       0.227100
     13 C14         -2.1810     0.8450    -1.1220 c3         1 I51       0.227100
     14 O3          -4.6260    -0.9980     1.1480 oh         1 I51      -0.563800
     15 O4          -3.1330     1.7020    -1.7560 oh         1 I51      -0.563800
     16 H1          -0.4980    -0.0040    -0.8680 hn         1 I51       0.219500
     17 H2           3.0410     0.0000     1.1280 hn         1 I51       0.206500
     18 H3          -1.2720     0.9610     3.7960 hc         1 I51       0.022367
     19 H4          -0.0330    -0.0890     4.4970 hc         1 I51       0.022367
     20 H5          -1.4510    -0.7970     3.7110 hc         1 I51       0.022367
     21 H6          -1.7380     0.9850     1.3660 ha         1 I51       0.251000
     22 H7          -4.2700    -1.1200    -0.8790 h1         1 I51       0.011950
     23 H8          -4.9110     0.4290    -0.3130 h1         1 I51       0.011950
     24 H9          -1.3430     1.4350    -0.7690 h1         1 I51       0.011950
     25 H10         -1.8290     0.1070    -1.8330 h1         1 I51       0.011950
     26 H11         -5.4970    -1.3490     1.0610 ho         1 I51       0.395000
     27 H12         -2.7210     2.1500    -2.4770 ho         1 I51       0.395000
@<TRIPOS>BOND
     1     1     5 1   
     2     1     9 1   
     3     1    16 1   
     4     2     5 2   
     5     3     6 2   
     6     4     5 1   
     7     4     6 1   
     8     4    17 1   
     9     6     7 1   
    10     7     8 1   
    11     7     9 2   
    12     8    18 1   
    13     8    19 1   
    14     8    20 1   
    15     9    10 1   
    16    10    11 2   
    17    10    21 1   
    18    11    12 1   
    19    11    13 1   
    20    12    14 1   
    21    12    22 1   
    22    12    23 1   
    23    13    15 1   
    24    13    24 1   
    25    13    25 1   
    26    14    26 1   
    27    15    27 1   
@<TRIPOS>SUBSTRUCTURE
     1 I51         1 TEMP              0 ****  ****    0 ROOT
