@<TRIPOS>MOLECULE
molecule
   82    84     1     0     0
SMALL
bcc


@<TRIPOS>ATOM
      1 C38          0.0000     0.0000     0.0000 c3         1 I52      -0.083400
      2 C39          1.5310     0.0000     0.0000 c3         1 I52      -0.092100
      3 C37         -0.5090     0.0000     1.4430 c3         1 I52      -0.082400
      4 C35         -2.5490    -0.0000     2.8850 c3         1 I52      -0.042100
      5 C36         -2.0390    -0.0000     1.4430 c3         1 I52      -0.077400
      6 N8         -17.2340     5.2680     3.7840 n3         1 I52      -0.668600
      7 C9         -18.6690     5.4080     3.5000 c3         1 I52       0.096300
      8 C13        -16.5250     5.5860     2.5370 c3         1 I52       0.096300
      9 O11        -18.2680     7.1010     1.8210 os         1 I52      -0.406600
     10 C12        -16.8710     7.0090     2.1010 c3         1 I52       0.125900
     11 C10        -18.9620     6.8360     3.0390 c3         1 I52       0.125900
     12 C31         -4.7440    -1.1990     2.8870 ca         1 I52      -0.136000
     13 C23        -16.7920     1.9360     6.5260 c3         1 I52      -0.083700
     14 C4         -15.3770     1.6920     5.9970 c3         1 I52       0.187500
     15 C6         -15.5110     3.6260     4.3590 c3         1 I52       0.221800
     16 S14        -14.8820     1.1820     3.3880 sy         1 I52       1.428200
     17 N5         -15.2710     2.2070     4.6300 n3         1 I52      -0.795500
     18 C3         -14.3820     2.4040     6.8780 c          1 I52       0.658100
     19 N2         -13.8510     1.7700     7.9420 ns         1 I52      -0.471400
     20 O21        -15.3680     1.8040     2.2080 o          1 I52      -0.637800
     21 O41         -8.9100    -1.0510     2.8870 o          1 I52      -0.588100
     22 N27         -8.9760     1.1680     2.8900 ns         1 I52      -0.483100
     23 C29         -6.8240     0.0010     2.8880 ca         1 I52      -0.159600
     24 C33         -4.7440     1.2000     2.8930 ca         1 I52      -0.136000
     25 C34         -6.1240     1.2070     2.8890 ca         1 I52      -0.081000
     26 C30         -6.1230    -1.2050     2.8870 ca         1 I52      -0.081000
     27 C32         -4.0560     0.0010     2.8860 ca         1 I52      -0.051300
     28 C16        -12.3750     0.2630     3.9550 ca         1 I52      -0.009000
     29 C18        -10.3700     1.1720     3.0070 ca         1 I52       0.118600
     30 C15        -13.1260     1.1780     3.2400 ca         1 I52      -0.333500
     31 O22        -15.2340    -0.1190     3.8370 o          1 I52      -0.637800
     32 C20        -12.5010     2.0890     2.4080 ca         1 I52      -0.009000
     33 C17        -10.9990     0.2580     3.8410 ca         1 I52      -0.165000
     34 C19        -11.1260     2.0920     2.2940 ca         1 I52      -0.165000
     35 H381        -0.3610    -0.8850    -0.5100 hc         1 I52       0.041200
     36 H382        -0.3610     0.8850    -0.5100 hc         1 I52       0.041200
     37 H391         1.8920    -0.0110    -1.0210 hc         1 I52       0.033367
     38 H392         1.8920     0.8900     0.5010 hc         1 I52       0.033367
     39 H393         1.8920    -0.8790     0.5200 hc         1 I52       0.033367
     40 H371        -0.1480     0.8850     1.9540 hc         1 I52       0.042200
     41 H372        -0.1480    -0.8850     1.9540 hc         1 I52       0.042200
     42 H351        -2.1880    -0.8850     3.3960 hc         1 I52       0.052200
     43 H352        -2.1870     0.8840     3.3960 hc         1 I52       0.052200
     44 H361        -2.4010    -0.8840     0.9330 hc         1 I52       0.046700
     45 H362        -2.4010     0.8850     0.9330 hc         1 I52       0.046700
     46 H251       -17.5170     1.3390     4.5940 hc         1 I52       0.040867
     47 H252       -18.7870     1.6350     5.7890 hc         1 I52       0.040867
     48 H253       -17.8140     0.1610     5.8800 hc         1 I52       0.040867
     49 H241       -16.4150     2.0870     8.6370 hc         1 I52       0.040867
     50 H242       -17.9460     1.3020     8.2250 hc         1 I52       0.040867
     51 H243       -16.4200     0.4310     8.0150 hc         1 I52       0.040867
     52 H71        -17.2750     3.2590     3.1880 h1         1 I52       0.049200
     53 H72        -17.5870     3.5350     4.9080 h1         1 I52       0.049200
     54 H91        -18.9500     4.7130     2.7180 h1         1 I52       0.049950
     55 H92        -19.2350     5.1960     4.3980 h1         1 I52       0.049950
     56 H131       -15.4570     5.5110     2.7020 h1         1 I52       0.049950
     57 H132       -16.8260     4.8890     1.7640 h1         1 I52       0.049950
     58 H121       -16.6190     7.7000     2.8960 h1         1 I52       0.053200
     59 H122       -16.3090     7.2580     1.2090 h1         1 I52       0.053200
     60 H101       -20.0270     6.9490     2.8780 h1         1 I52       0.053200
     61 H102       -18.6310     7.5330     3.8000 h1         1 I52       0.053200
     62 H31         -4.1990    -2.1350     2.8860 ha         1 I52       0.138000
     63 H23        -17.0010     2.9990     6.5220 hc         1 I52       0.077700
     64 H4         -15.1680     0.6290     6.0000 h1         1 I52       0.087700
     65 H61        -15.2300     4.2110     5.2260 h1         1 I52       0.083700
     66 H62        -14.9190     3.9360     3.5070 h1         1 I52       0.083700
     67 H1         -12.7160     1.8980     9.5170 ho         1 I52       0.399000
     68 H2         -14.0760     0.8100     8.1160 hn         1 I52       0.321500
     69 H27         -8.4770     2.0340     2.8320 hn         1 I52       0.330500
     70 H33         -4.1980     2.1360     2.8940 ha         1 I52       0.138000
     71 H34         -6.6620     2.1470     2.8950 ha         1 I52       0.140500
     72 H30         -6.6610    -2.1460     2.8880 ha         1 I52       0.140500
     73 H16        -12.8670    -0.4500     4.6060 ha         1 I52       0.148000
     74 H20        -13.0920     2.8070     1.8520 ha         1 I52       0.148000
     75 H17        -10.4120    -0.4590     4.4020 ha         1 I52       0.149000
     76 H19        -10.6380     2.8060     1.6420 ha         1 I52       0.149000
     77 C28         -8.3020     0.0020     2.8880 c          1 I52       0.677700
     78 C25        -17.8010     1.2150     5.6320 c3         1 I52      -0.091100
     79 C24        -16.9010     1.4000     7.9550 c3         1 I52      -0.091100
     80 C7         -16.9940     3.8440     4.0550 c3         1 I52       0.103800
     81 O26        -14.0590     3.5470     6.6300 o          1 I52      -0.569100
     82 O1         -12.9160     2.4370     8.7700 oh         1 I52      -0.364100
@<TRIPOS>BOND
     1     1     2 1
     2     1     3 1
     3     1    35 1
     4     1    36 1
     5     2    37 1
     6     2    38 1
     7     2    39 1
     8     3     5 1
     9     3    40 1
    10     3    41 1
    11     4     5 1
    12     4    27 1
    13     4    42 1
    14     4    43 1
    15     5    44 1
    16     5    45 1
    17    78    13 1
    18    78    46 1
    19    78    47 1
    20    78    48 1
    21    79    13 1
    22    79    49 1
    23    79    50 1
    24    79    51 1
    25     6    80 1
    26     6     7 1
    27     6     8 1
    28    80    15 1
    29    80    52 1
    30    80    53 1
    31     7    11 1
    32     7    54 1
    33     7    55 1
    34     8    10 1
    35     8    56 1
    36     8    57 1
    37     9    10 1
    38     9    11 1
    39    10    58 1
    40    10    59 1
    41    11    60 1
    42    11    61 1
    43    12    26 ar
    44    12    27 ar
    45    12    62 1
    46    13    14 1
    47    13    63 1
    48    81    18 2
    49    14    17 1
    50    14    18 1
    51    14    64 1
    52    15    17 1
    53    15    65 1
    54    15    66 1
    55    16    17 1
    56    16    20 2
    57    16    30 1
    58    16    31 2
    59    18    19 1
    60    82    19 1
    61    82    67 1
    62    19    68 1
    63    21    77 2
    64    77    22 1
    65    77    23 1
    66    22    29 1
    67    22    69 1
    68    23    25 ar
    69    23    26 ar
    70    24    25 ar
    71    24    27 ar
    72    24    70 1
    73    25    71 1
    74    26    72 1
    75    28    30 ar
    76    28    33 ar
    77    28    73 1
    78    29    33 ar
    79    29    34 ar
    80    30    32 ar
    81    32    34 ar
    82    32    74 1
    83    33    75 1
    84    34    76 1
@<TRIPOS>SUBSTRUCTURE
     1 I52         1 TEMP              0 ****  ****    0 ROOT
