@<TRIPOS>MOLECULE
I53
   52    55     1     0     0
SMALL
bcc


@<TRIPOS>ATOM
      1 C1           0.0000     0.0000     0.0000 c3         1 I53      -0.060700
      2 C2           2.4380     0.0000     0.6180 cc         1 I53      -0.240300
      3 C3           2.2370    -0.0090     2.1110 c3         1 I53       0.230000
      4 C4           1.8510     1.3960     4.0440 c3         1 I53       0.147800
      5 C6           1.4520     2.8750     6.0180 c3         1 I53       0.163800
      6 C7           1.0640     4.5390     7.7930 cc         1 I53       0.340700
      7 C8           0.7230     5.6490     9.6390 ca         1 I53       0.107400
      8 C9           0.5060     6.5950    10.6440 ca         1 I53      -0.059000
      9 C11          0.4500     4.8410    12.2800 ca         1 I53      -0.109000
     10 C12          0.6640     3.8940    11.3000 ca         1 I53      -0.080000
     11 C13          0.8010     4.2880     9.9780 ca         1 I53      -0.281200
     12 C14          3.6290     0.0000     0.0000 cd         1 I53      -0.148200
     13 C15          3.3650     0.0100    -1.4400 ca         1 I53      -0.108800
     14 C16          4.1790     0.0140    -2.5760 ca         1 I53       0.037400
     15 C17          3.6100     0.0240    -3.8190 ca         1 I53      -0.132000
     16 C18          2.2280     0.0310    -3.9610 ca         1 I53      -0.008600
     17 C20          1.9660     0.0160    -1.5790 ca         1 I53      -0.193200
     18 Cl1          1.5270     0.0440    -5.5500 cl         1 I53      -0.026400
     19 Cl           5.9070     0.0070    -2.4100 cl         1 I53      -0.025400
     20 C19          1.4070     0.0260    -2.8540 ca         1 I53      -0.102000
     21 N            1.4310     0.0040    -0.3110 na         1 I53       0.427600
     22 C           -0.5010     1.4400     0.1170 c3         1 I53       0.197400
     23 O           -1.8980     1.4360     0.4190 oh         1 I53      -0.591800
     24 N1           2.0490     1.3670     2.5890 n7         1 I53      -0.592200
     25 C5           1.6590     2.8440     4.5030 c3         1 I53      -0.035400
     26 N2           1.2700     4.2610     6.4580 nu         1 I53      -0.475200
     27 N4           1.0180     3.6080     8.7910 na         1 I53       0.215700
     28 N3           0.8910     5.7370     8.2930 nd         1 I53      -0.603100
     29 C10          0.3720     6.1870    11.9510 ca         1 I53      -0.110000
     30 H1          -0.5400    -0.5070    -0.7910 h1         1 I53       0.043700
     31 H2          -0.1640    -0.5170     0.9380 h1         1 I53       0.043700
     32 H3           1.3610    -0.5990     2.3540 h1         1 I53       0.016200
     33 H4           3.1080    -0.4420     2.5900 h1         1 I53       0.016200
     34 H5           0.9720     0.8170     4.3000 h1         1 I53       0.009700
     35 H6           2.7180     0.9730     4.5350 h1         1 I53       0.009700
     36 H7           0.5730     2.2960     6.2740 h1         1 I53       0.008200
     37 H8           2.3190     2.4510     6.5100 h1         1 I53       0.008200
     38 H9           0.4430     7.6480    10.3950 ha         1 I53       0.109000
     39 H10          0.3430     4.5320    13.3130 ha         1 I53       0.102000
     40 H11          0.7240     2.8450    11.5630 ha         1 I53       0.096000
     41 H12          4.5910    -0.1690     0.4700 ha         1 I53       0.136000
     42 H13          4.2410     0.0270    -4.7000 ha         1 I53       0.127000
     43 H14          0.3310     0.0310    -2.9750 ha         1 I53       0.117000
     44 H15          0.0380     1.9470     0.9090 h1         1 I53       0.004700
     45 H16         -0.3370     1.9570    -0.8200 h1         1 I53       0.004700
     46 H17         -2.2420     2.3090     0.3290 ho         1 I53       0.398000
     47 H18          2.8520     1.9160     2.3510 hn         1 I53       0.264800
     48 H20          2.5380     3.4230     4.2470 hc         1 I53       0.028700
     49 H21          0.7920     3.2680     4.0110 hc         1 I53       0.028700
     50 H22          1.2810     5.0040     5.7880 hn         1 I53       0.315800
     51 H23          0.9930     2.6150     8.6680 hn         1 I53       0.126700
     52 H25          0.2030     6.9210    12.7300 ha         1 I53       0.102000
@<TRIPOS>BOND
     1     1    21 1   
     2     1    22 1   
     3     1    30 1   
     4     1    31 1   
     5     2     3 1   
     6     2    12 2   
     7     2    21 1   
     8     3    24 1   
     9     3    32 1   
    10     3    33 1   
    11     4    24 1   
    12     4    25 1   
    13     4    34 1   
    14     4    35 1   
    15     5    25 1   
    16     5    26 1   
    17     5    36 1   
    18     5    37 1   
    19     6    26 1   
    20     6    27 1   
    21     6    28 2   
    22     7     8 ar  
    23     7    11 ar  
    24     7    28 1   
    25     8    29 ar  
    26     8    38 1   
    27     9    10 ar  
    28     9    29 ar  
    29     9    39 1   
    30    10    11 ar  
    31    10    40 1   
    32    11    27 1   
    33    12    13 1   
    34    12    41 1   
    35    13    14 ar  
    36    13    17 ar  
    37    14    15 ar  
    38    14    19 1   
    39    15    16 ar  
    40    15    42 1   
    41    16    18 1   
    42    16    20 ar  
    43    17    20 ar  
    44    17    21 1   
    45    20    43 1   
    46    22    23 1   
    47    22    44 1   
    48    22    45 1   
    49    23    46 1   
    50    24    47 1   
    51    25    48 1   
    52    25    49 1   
    53    26    50 1   
    54    27    51 1   
    55    29    52 1   
@<TRIPOS>SUBSTRUCTURE
     1 I53         1 TEMP              0 ****  ****    0 ROOT
