@<TRIPOS>MOLECULE
I57
   57    59     1     0     0
SMALL
bcc


@<TRIPOS>ATOM
      1 O1A          0.0000     0.0000     0.0000 o          1 I57      -0.859800
      2 O1B          1.8890     0.0190    -1.1680 o          1 I57      -0.859800
      3 C01          1.2150     0.0000     0.0000 c          1 I57       0.970800
      4 C02          1.9530     0.0000     1.2750 ce         1 I57       0.121900
      5 C03          1.2600    -0.0010     2.4050 c2         1 I57      -0.394200
      6 C04          1.9250    -0.0090     3.7550 c3         1 I57       0.000200
      7 N04          1.2330     0.9230     4.6460 na         1 I57       0.640400
      8 C05          3.3900     0.4190     3.6050 c3         1 I57      -0.041300
      9 N05          4.1200     0.1170     4.8380 ns         1 I57      -0.198900
     10 C06          4.0010    -0.3640     2.4350 c3         1 I57       0.161100
     11 O06          3.3070    -0.0060     1.2390 os         1 I57      -0.244900
     12 C07          5.4840    -0.0110     2.2990 c3         1 I57       0.187100
     13 O07          5.6270     1.4050     2.1710 oh         1 I57      -0.559800
     14 C08          6.0590    -0.6970     1.0580 c3         1 I57       0.149100
     15 O08          5.9160    -2.1120     1.1860 oh         1 I57      -0.596800
     16 C09          7.5430    -0.3440     0.9220 c3         1 I57       0.182400
     17 O09          8.0510    -0.8870    -0.2970 oh         1 I57      -0.587800
     18 C41          0.6660     2.0950     4.2790 cc         1 I57      -0.395600
     19 C42          0.1380     2.6320     5.4170 cd         1 I57       0.299800
     20 N42          0.4130     1.7620     6.4050 nd         1 I57      -0.323000
     21 N41          1.0560     0.7630     5.9110 nc         1 I57      -0.408800
     22 C43         -0.5910     3.9190     5.5400 ca         1 I57      -0.071500
     23 C44         -0.8020     4.7140     4.4140 ca         1 I57      -0.093500
     24 C45         -1.4810     5.9090     4.5350 ca         1 I57      -0.109500
     25 C46         -1.9520     6.3200     5.7680 ca         1 I57      -0.122000
     26 C47         -1.7450     5.5360     6.8890 ca         1 I57      -0.109500
     27 C48         -1.0720     4.3350     6.7790 ca         1 I57      -0.093500
     28 C54          6.3460     0.5100     6.8120 c3         1 I57       0.012400
     29 C52          4.8590     0.6830     7.1300 c3         1 I57      -0.121700
     30 C53          4.6810     1.8330     8.1230 c3         1 I57       0.012400
     31 C51          4.1070     0.9940     5.8620 c          1 I57       0.582100
     32 O52          3.4880     2.0320     5.7620 o          1 I57      -0.638100
     33 H2           0.1780     0.0010     2.3550 ha         1 I57       0.165000
     34 H3           1.8840    -1.0100     4.1690 h1         1 I57       0.049700
     35 H4           3.4380     1.4800     3.3960 h1         1 I57       0.093700
     36 H5           4.6070    -0.7520     4.9310 hn         1 I57       0.174500
     37 H6           3.8900    -1.4270     2.6130 h1         1 I57       0.035700
     38 H7           6.0190    -0.3500     3.1790 h1         1 I57      -0.001300
     39 H8           6.4660     1.6680     2.5100 ho         1 I57       0.378000
     40 H9           5.5260    -0.3580     0.1780 h1         1 I57       0.068700
     41 H10          6.0320    -2.5180     0.3430 ho         1 I57       0.410000
     42 H11          7.6580     0.7340     0.9130 h1         1 I57      -0.011800
     43 H12          8.0910    -0.7590     1.7590 h1         1 I57      -0.011800
     44 H13          8.9590    -0.6510    -0.3930 ho         1 I57       0.384000
     45 H14          0.6360     2.5210     3.2830 h4         1 I57       0.177000
     46 H15         -0.4340     4.3940     3.4460 ha         1 I57       0.118000
     47 H16         -1.6460     6.5270     3.6600 ha         1 I57       0.095000
     48 H17         -2.4830     7.2600     5.8580 ha         1 I57       0.091000
     49 H18         -2.1180     5.8610     7.8530 ha         1 I57       0.095000
     50 H19         -0.9110     3.7210     7.6570 ha         1 I57       0.118000
     51 H20          6.9190     0.5540     7.7300 hc         1 I57       0.006367
     52 H21          6.5040    -0.4480     6.3330 hc         1 I57       0.006367
     53 H22          6.6670     1.3030     6.1470 hc         1 I57       0.006367
     54 H23          4.4730    -0.2320     7.5630 hc         1 I57       0.037700
     55 H24          4.9930     2.7620     7.6610 hc         1 I57       0.006367
     56 H25          5.2850     1.6480     9.0030 hc         1 I57       0.006367
     57 H26          3.6380     1.9050     8.4100 hc         1 I57       0.006367
@<TRIPOS>BOND
     1     1     3 1   
     2     2     3 1   
     3     3     4 1   
     4     4     5 2   
     5     4    11 1   
     6     5     6 1   
     7     5    33 1   
     8     6     7 1   
     9     6     8 1   
    10     6    34 1   
    11     7    18 1   
    12     7    21 1   
    13     8     9 1   
    14     8    10 1   
    15     8    35 1   
    16     9    31 1   
    17     9    36 1   
    18    10    11 1   
    19    10    12 1   
    20    10    37 1   
    21    12    13 1   
    22    12    14 1   
    23    12    38 1   
    24    13    39 1   
    25    14    15 1   
    26    14    16 1   
    27    14    40 1   
    28    15    41 1   
    29    16    17 1   
    30    16    42 1   
    31    16    43 1   
    32    17    44 1   
    33    18    19 2   
    34    18    45 1   
    35    19    20 1   
    36    19    22 1   
    37    20    21 2   
    38    22    23 ar  
    39    22    27 ar  
    40    23    24 ar  
    41    23    46 1   
    42    24    25 ar  
    43    24    47 1   
    44    25    26 ar  
    45    25    48 1   
    46    26    27 ar  
    47    26    49 1   
    48    27    50 1   
    49    28    29 1   
    50    28    51 1   
    51    28    52 1   
    52    28    53 1   
    53    29    30 1   
    54    29    31 1   
    55    29    54 1   
    56    30    55 1   
    57    30    56 1   
    58    30    57 1   
    59    31    32 2   
@<TRIPOS>SUBSTRUCTURE
     1 I57         1 TEMP              0 ****  ****    0 ROOT
