@<TRIPOS>MOLECULE
molecule
   57    59     1     0     0
SMALL
bcc


@<TRIPOS>ATOM
      1 O1A          0.0000     0.0000     0.0000 o          1 I57      -0.804800
      2 O1B          1.8890     0.0190    -1.1680 o          1 I57      -0.804800
      3 C01          1.2150     0.0000     0.0000 c          1 I57       0.886800
      4 C02          1.9530     0.0000     1.2750 ce         1 I57       0.106900
      5 C03          1.2600    -0.0010     2.4050 c2         1 I57      -0.377200
      6 C04          1.9250    -0.0090     3.7550 c3         1 I57       0.104200
      7 N04          1.2330     0.9230     4.6460 na         1 I57       0.160400
      8 C05          3.3900     0.4190     3.6050 c3         1 I57       0.064700
      9 N05          4.1200     0.1170     4.8380 ns         1 I57      -0.586900
     10 C06          4.0010    -0.3640     2.4350 c3         1 I57       0.144100
     11 O06          3.3070    -0.0060     1.2390 os         1 I57      -0.277900
     12 C07          5.4840    -0.0110     2.2990 c3         1 I57       0.166100
     13 O07          5.6270     1.4050     2.1710 oh         1 I57      -0.576800
     14 C08          6.0590    -0.6970     1.0580 c3         1 I57       0.125100
     15 O08          5.9160    -2.1120     1.1860 oh         1 I57      -0.615800
     16 C09          7.5430    -0.3440     0.9220 c3         1 I57       0.101400
     17 O09          8.0510    -0.8870    -0.2970 oh         1 I57      -0.606800
     18 C41          0.6660     2.0950     4.2790 cc         1 I57      -0.226600
     19 C42          0.1380     2.6320     5.4170 cd         1 I57       0.298800
     20 N42          0.4130     1.7620     6.4050 nd         1 I57      -0.373000
     21 N41          1.0560     0.7630     5.9110 nc         1 I57      -0.225800
     22 C43         -0.5910     3.9190     5.5400 ca         1 I57      -0.075500
     23 C44         -0.8020     4.7140     4.4140 ca         1 I57      -0.116000
     24 C45         -1.4810     5.9090     4.5350 ca         1 I57      -0.135000
     25 C46         -1.9520     6.3200     5.7680 ca         1 I57      -0.145000
     26 C47         -1.7450     5.5360     6.8890 ca         1 I57      -0.135000
     27 C48         -1.0720     4.3350     6.7790 ca         1 I57      -0.116000
     28 C54          6.3460     0.5100     6.8120 c3         1 I57      -0.080600
     29 C52          4.8590     0.6830     7.1300 c3         1 I57      -0.147700
     30 C53          4.6810     1.8330     8.1230 c3         1 I57      -0.080600
     31 C51          4.1070     0.9940     5.8620 c          1 I57       0.666100
     32 O52          3.4880     2.0320     5.7620 o          1 I57      -0.591100
     33 H2           0.1780     0.0010     2.3550 ha         1 I57       0.179000
     34 H3           1.8840    -1.0100     4.1690 h1         1 I57       0.077700
     35 H4           3.4380     1.4800     3.3960 h1         1 I57       0.117700
     36 H5           4.6070    -0.7520     4.9310 hn         1 I57       0.307500
     37 H6           3.8900    -1.4270     2.6130 h1         1 I57       0.065700
     38 H7           6.0190    -0.3500     3.1790 h1         1 I57       0.032700
     39 H8           6.4660     1.6680     2.5100 ho         1 I57       0.391000
     40 H9           5.5260    -0.3580     0.1780 h1         1 I57       0.104700
     41 H10          6.0320    -2.5180     0.3430 ho         1 I57       0.423000
     42 H11          7.6580     0.7340     0.9130 h1         1 I57       0.021200
     43 H12          8.0910    -0.7590     1.7590 h1         1 I57       0.021200
     44 H13          8.9590    -0.6510    -0.3930 ho         1 I57       0.397000
     45 H14          0.6360     2.5210     3.2830 h4         1 I57       0.196000
     46 H15         -0.4340     4.3940     3.4460 ha         1 I57       0.142500
     47 H16         -1.6460     6.5270     3.6600 ha         1 I57       0.121000
     48 H17         -2.4830     7.2600     5.8580 ha         1 I57       0.116000
     49 H18         -2.1180     5.8610     7.8530 ha         1 I57       0.121000
     50 H19         -0.9110     3.7210     7.6570 ha         1 I57       0.142500
     51 H20          6.9190     0.5540     7.7300 hc         1 I57       0.038533
     52 H21          6.5040    -0.4480     6.3330 hc         1 I57       0.038533
     53 H22          6.6670     1.3030     6.1470 hc         1 I57       0.038533
     54 H23          4.4730    -0.2320     7.5630 hc         1 I57       0.065700
     55 H24          4.9930     2.7620     7.6610 hc         1 I57       0.038533
     56 H25          5.2850     1.6480     9.0030 hc         1 I57       0.038533
     57 H26          3.6380     1.9050     8.4100 hc         1 I57       0.038533
@<TRIPOS>BOND
     1    15    14 1
     2    16    17 1
     3    16    14 1
     4    14    12 1
     5     1     3 1
     6    12    10 1
     7    12    13 1
     8     3     2 1
     9     3     4 1
    10    11    10 1
    11    11     4 1
    12    10     8 1
    13     4     5 2
    14     5     6 1
    15     8     9 1
    16     8     6 1
    17     9    31 1
    18     6     7 1
    19    28    29 1
    20    31    29 1
    21    31    32 2
    22    29    30 1
    23     7    21 1
    24     7    18 1
    25    21    20 2
    26    18    19 2
    27    20    19 1
    28    19    22 1
    29    22    27 ar
    30    22    23 ar
    31    27    26 ar
    32    23    24 ar
    33    26    25 ar
    34    24    25 ar
    35     5    33 1
    36     6    34 1
    37     8    35 1
    38     9    36 1
    39    10    37 1
    40    12    38 1
    41    13    39 1
    42    14    40 1
    43    15    41 1
    44    16    42 1
    45    16    43 1
    46    17    44 1
    47    18    45 1
    48    23    46 1
    49    24    47 1
    50    25    48 1
    51    26    49 1
    52    27    50 1
    53    28    51 1
    54    28    52 1
    55    28    53 1
    56    29    54 1
    57    30    55 1
    58    30    56 1
    59    30    57 1
@<TRIPOS>SUBSTRUCTURE
     1 I57         1 TEMP              0 ****  ****    0 ROOT
