@<TRIPOS>MOLECULE
I59
   25    25     1     0     0
SMALL
bcc


@<TRIPOS>ATOM
      1 C1          0.2600   -0.3790   -0.6970 ca        1 I59     -0.107000
      2 C2          1.5790   -0.6540   -0.3980 ca        1 I59     -0.247000
      3 C3          2.1090   -0.4210    0.9030 ca        1 I59      0.090000
      4 C4          1.2280    0.1030    1.9120 ca        1 I59     -0.098000
      5 C5         -0.0980    0.3720    1.5670 ca        1 I59     -0.081000
      6 C6         -0.5910    0.1400    0.2830 ca        1 I59     -0.282000
      7 C7          3.4500   -0.6880    1.1940 ca        1 I59     -0.402000
      8 C8          3.9420   -0.4260    2.4850 ca        1 I59     -0.040000
      9 C9          3.1460    0.0700    3.4750 ca        1 I59     -0.284000
     10 C10         1.7420    0.3400    3.2610 ca        1 I59     -0.026000
     11 C11         0.9300    0.7690    4.2670 c2        1 I59     -0.149000
     12 O12         1.3310    1.0380    5.5630 oh        1 I59     -0.355000
     13 P13         0.8140    1.5360    7.7920 p3        1 I59      2.440000
     14 O15        -0.5090    0.9070    7.9780 o         1 I59     -1.146667
     15 O16         2.0400    0.7080    7.8580 o         1 I59     -1.146667
     16 O17         0.9210    3.0060    7.8790 o         1 I59     -1.146667
     17 H1         -0.1280   -0.5670   -1.7080 ha        1 I59      0.071000
     18 H2          2.2490   -1.0610   -1.1670 ha        1 I59      0.087000
     19 H5         -0.7880    0.7810    2.3200 ha        1 I59      0.104000
     20 H6         -1.6380    0.3610    0.0470 ha        1 I59      0.084000
     21 H7          4.1120   -1.0910    0.4220 ha        1 I59      0.080000
     22 H8          5.0060   -0.6250    2.6880 ha        1 I59      0.067000
     23 H9          3.5650    0.2860    4.4670 ha        1 I59      0.105000
     24 H11        -0.1380    0.9990    4.1690 h4        1 I59      0.131000
     25 H12         2.1040    0.4930    5.7960 ho        1 I59      0.253000
@<TRIPOS>BOND
     1    1    2 1   
     2    1    6 1   
     3    1   17 1   
     4    2    3 1   
     5    2   18 1   
     6    3    4 1   
     7    3    7 1   
     8    4    5 1   
     9    4   10 1   
    10    5    6 1   
    11    5   19 1   
    12    6   20 1   
    13    7    8 1   
    14    7   21 1   
    15    8    9 1   
    16    8   22 1   
    17    9   10 1   
    18    9   23 1   
    19   10   11 1   
    20   11   12 1   
    21   11   24 1   
    22   12   25 1   
    23   13   14 1   
    24   13   15 1   
    25   13   16 1   
@<TRIPOS>SUBSTRUCTURE
     1 I59         1 TEMP              0 ****  ****    0 ROOT
