@<TRIPOS>MOLECULE
molecule
   25    26     1     0     0
SMALL
bcc


@<TRIPOS>ATOM
      1 C1           0.0000     0.0000     0.0000 ca         1 I59      -0.129000
      2 C2           1.3610     0.0000     0.0000 ca         1 I59      -0.170000
      3 C3           2.0560     0.0000     1.2200 ca         1 I59      -0.016000
      4 C4           1.3280    -0.0050     2.4360 ca         1 I59      -0.029000
      5 C5          -0.0770     0.0010     2.3970 ca         1 I59       0.002000
      6 C6          -0.7170     0.0000     1.1950 ca         1 I59      -0.195000
      7 C7           3.4610     0.0000     1.2600 ca         1 I59      -0.202000
      8 C8           4.1010     0.0010     2.4610 ca         1 I59      -0.109000
      9 C9           3.3840     0.0020     3.6560 ca         1 I59      -0.153000
     10 C10          2.0230     0.0010     3.6570 ca         1 I59       0.035700
     11 C11          1.2660     0.0010     4.9580 c3         1 I59       0.051200
     12 O12          2.1340    -0.4180     6.0130 oh         1 I59      -0.588800
     13 P13          0.6560     1.6820     5.3080 p5         1 I59       0.995700
     14 O15          0.0740     2.2600     4.0750 o          1 I59      -0.883167
     15 O16         -0.4710     1.6170     6.4540 o          1 I59      -0.883167
     16 O17          1.8760     2.6040     5.8080 o          1 I59      -0.883167
     17 H1          -0.5340    -0.0000    -0.9430 ha         1 I59       0.083000
     18 H2           1.9050    -0.0000    -0.9370 ha         1 I59       0.092000
     19 H5          -0.6470     0.0010     3.3180 ha         1 I59       0.168000
     20 H6          -1.8000     0.0000     1.1680 ha         1 I59       0.103000
     21 H7           4.0310    -0.0000     0.3390 ha         1 I59       0.089000
     22 H8           5.1840     0.0010     2.4890 ha         1 I59       0.087000
     23 H9           3.9190     0.0020     4.5980 ha         1 I59       0.149000
     24 H11          0.4270    -0.6810     4.8880 h1         1 I59       0.019700
     25 H12          1.6950    -1.0600     6.5460 ho         1 I59       0.364000
@<TRIPOS>BOND
     1     1     2 ar
     2     1     6 ar
     3     1    17 1
     4     2     3 ar
     5     2    18 1
     6     3     4 ar
     7     3     7 ar
     8     4     5 ar
     9     4    10 ar
    10     5     6 ar
    11     5    19 1
    12     6    20 1
    13     7     8 ar
    14     7    21 1
    15     8     9 ar
    16     8    22 1
    17     9    10 ar
    18     9    23 1
    19    10    11 1
    20    11    12 1
    21    11    13 1
    22    11    24 1
    23    12    25 1
    24    13    14 1
    25    13    15 1
    26    13    16 1
@<TRIPOS>SUBSTRUCTURE
     1 I59         1 TEMP              0 ****  ****    0 ROOT
