@<TRIPOS>MOLECULE
I5A
   30    31     1     0     0
SMALL
bcc


@<TRIPOS>ATOM
      1 I            0.0000     0.0000     0.0000 i          1 I5A      -0.389900
      2 N1           3.4870    -1.1200     4.3880 n          1 I5A       0.130000
      3 C2           3.8440    -2.3310     3.9190 c          1 I5A       0.676900
      4 O2           4.0200    -2.4810     2.7220 o          1 I5A      -0.575500
      5 N3           4.0090    -3.3650     4.7420 nc         1 I5A      -0.478100
      6 C4           3.8240    -3.2280     6.0470 cd         1 I5A       0.266500
      7 N4           3.9970    -4.3040     6.8870 nz         1 I5A       0.200400
      8 C5           3.4490    -1.9740     6.5710 cd         1 I5A      -0.382600
      9 C6           3.2910    -0.9300     5.7230 cc         1 I5A       0.004600
     10 C1'          3.3140     0.0000     3.4590 c3         1 I5A       0.185500
     11 C2'          4.6430     0.3090     2.7370 c3         1 I5A       0.121100
     12 O2'          5.3110     1.4060     3.3640 oh         1 I5A      -0.548800
     13 C3'          4.2120     0.6880     1.3020 c3         1 I5A       0.151100
     14 O3'          4.6000     2.0300     1.0010 oh         1 I5A      -0.545800
     15 C4'          2.6730     0.5620     1.3280 c3         1 I5A       0.153100
     16 O4'          2.3960    -0.3610     2.4040 os         1 I5A      -0.368600
     17 C5'          2.1630     0.0000     0.0000 c3         1 I5A       0.331500
     18 HN4          3.1400    -4.4920     7.3690 hn         1 I5A       0.222800
     19 HN4A         4.7150    -4.0960     7.5520 hn         1 I5A       0.222800
     20 H5           3.2960    -1.8450     7.6360 ha         1 I5A       0.153000
     21 H6           3.0030     0.0440     6.1010 h4         1 I5A       0.163000
     22 H1'          2.9570     0.8790     3.9820 h2         1 I5A       0.068700
     23 H2'          5.2770    -0.5690     2.7210 h1         1 I5A       0.034700
     24 HO2'         6.2140     1.1800     3.5150 ho         1 I5A       0.399000
     25 H3'          4.6350    -0.0060     0.5860 h1         1 I5A       0.030700
     26 HO3'         5.1870     2.0290     0.2630 ho         1 I5A       0.401000
     27 H4'          2.2210     1.5240     1.5340 h1         1 I5A       0.061700
     28 H5'          2.5230     0.6170    -0.8140 h1         1 I5A       0.044200
     29 H5'A         2.5230    -1.0130    -0.1270 h1         1 I5A       0.044200
     30 H43          4.2710    -5.1040     6.3520 hn         1 I5A       0.222800
@<TRIPOS>BOND
     1     1    17 1   
     2     2     3 1   
     3     2     9 1   
     4     2    10 1   
     5     3     4 2   
     6     3     5 1   
     7     5     6 2   
     8     6     7 1   
     9     6     8 1   
    10     7    18 1   
    11     7    19 1   
    12     7    30 1   
    13     8     9 2   
    14     8    20 1   
    15     9    21 1   
    16    10    11 1   
    17    10    16 1   
    18    10    22 1   
    19    11    12 1   
    20    11    13 1   
    21    11    23 1   
    22    12    24 1   
    23    13    14 1   
    24    13    15 1   
    25    13    25 1   
    26    14    26 1   
    27    15    16 1   
    28    15    17 1   
    29    15    27 1   
    30    17    28 1   
    31    17    29 1   
@<TRIPOS>SUBSTRUCTURE
     1 I5A         1 TEMP              0 ****  ****    0 ROOT
