@<TRIPOS>MOLECULE
molecule
   30    31     1     0     0
SMALL
bcc


@<TRIPOS>ATOM
      1 I            0.0000     0.0000     0.0000 i          1 I5A      -0.227900
      2 N1           3.4870    -1.1200     4.3880 n          1 I5A      -0.315000
      3 C2           3.8440    -2.3310     3.9190 c          1 I5A       0.826900
      4 O2           4.0200    -2.4810     2.7220 o          1 I5A      -0.529500
      5 N3           4.0090    -3.3650     4.7420 nc         1 I5A      -0.633100
      6 C4           3.8240    -3.2280     6.0470 cd         1 I5A       0.574500
      7 N4           3.9970    -4.3040     6.8870 nz         1 I5A      -0.741600
      8 C5           3.4490    -1.9740     6.5710 cd         1 I5A      -0.435600
      9 C6           3.2910    -0.9300     5.7230 cc         1 I5A       0.138600
     10 C1'          3.3140     0.0000     3.4590 c3         1 I5A       0.281500
     11 C2'          4.6430     0.3090     2.7370 c3         1 I5A       0.089100
     12 O2'          5.3110     1.4060     3.3640 oh         1 I5A      -0.571800
     13 C3'          4.2120     0.6880     1.3020 c3         1 I5A       0.111100
     14 O3'          4.6000     2.0300     1.0010 oh         1 I5A      -0.566800
     15 C4'          2.6730     0.5620     1.3280 c3         1 I5A       0.129100
     16 O4'          2.3960    -0.3610     2.4040 os         1 I5A      -0.385600
     17 C5'          2.1630     0.0000     0.0000 c3         1 I5A       0.092500
     18 HN4          3.1400    -4.4920     7.3690 hn         1 I5A       0.477800
     19 HN4A         4.7150    -4.0960     7.5520 hn         1 I5A       0.477800
     20 H5           3.2960    -1.8450     7.6360 ha         1 I5A       0.175000
     21 H6           3.0030     0.0440     6.1010 h4         1 I5A       0.206000
     22 H1'          2.9570     0.8790     3.9820 h2         1 I5A       0.106700
     23 H2'          5.2770    -0.5690     2.7210 h1         1 I5A       0.069700
     24 HO2'         6.2140     1.1800     3.5150 ho         1 I5A       0.415000
     25 H3'          4.6350    -0.0060     0.5860 h1         1 I5A       0.069700
     26 HO3'         5.1870     2.0290     0.2630 ho         1 I5A       0.416000
     27 H4'          2.2210     1.5240     1.5340 h1         1 I5A       0.092700
     28 H5'          2.5230     0.6170    -0.8140 h1         1 I5A       0.089700
     29 H5'A         2.5230    -1.0130    -0.1270 h1         1 I5A       0.089700
     30 H43          4.2710    -5.1040     6.3520 hn         1 I5A       0.477800
@<TRIPOS>BOND
     1     1    17 1
     2     9     2 1
     3     2     3 1
     4     2    10 1
     5     5     3 1
     6     3     4 2
     7     6     5 2
     8     8     6 1
     9     7     6 1
    10     7    18 1
    11     7    19 1
    12     8     9 2
    13     8    20 1
    14     9    21 1
    15    11    10 1
    16    10    16 1
    17    10    22 1
    18    11    12 1
    19    11    13 1
    20    11    23 1
    21    12    24 1
    22    13    14 1
    23    13    15 1
    24    13    25 1
    25    14    26 1
    26    17    15 1
    27    15    16 1
    28    15    27 1
    29    17    28 1
    30    17    29 1
    31    30     7 1
@<TRIPOS>SUBSTRUCTURE
     1 I5A         1 TEMP              0 ****  ****    0 ROOT
