@<TRIPOS>MOLECULE
I5H
   28    30     1     0     0
SMALL
bcc


@<TRIPOS>ATOM
      1 N1           0.0000     0.0000     0.0000 na         1 I5H       0.359600
      2 C2           1.3690     0.0000     0.0000 cc         1 I5H      -0.251100
      3 C3           1.8270     0.0000     1.2620 cd         1 I5H      -0.176400
      4 C4           0.6560    -0.0010     2.1420 ca         1 I5H      -0.100800
      5 C5           0.4840    -0.0010     3.5280 ca         1 I5H      -0.061000
      6 C6          -0.7760    -0.0020     4.0550 ca         1 I5H      -0.120000
      7 C7          -1.8880    -0.0020     3.2240 ca         1 I5H      -0.083000
      8 C8          -1.7410    -0.0020     1.8540 ca         1 I5H      -0.098000
      9 C9          -0.4670    -0.0010     1.2960 ca         1 I5H      -0.225200
     10 C10          3.2720    -0.0000     1.6900 c3         1 I5H       0.077800
     11 C11          3.7250    -1.4370     1.9540 c3         1 I5H      -0.089300
     12 C12          5.2070    -1.4810     2.2690 c          1 I5H       0.612500
     13 N13          5.3010    -1.9750     3.5190 ns         1 I5H      -0.163500
     14 C14          4.0960    -2.2480     4.0330 c          1 I5H       0.602500
     15 N15          3.0960    -1.9630     3.1790 ns         1 I5H      -0.208900
     16 O16          6.1190    -1.1400     1.5460 o          1 I5H      -0.618500
     17 O17          3.9240    -2.7030     5.1460 o          1 I5H      -0.698500
     18 HN1         -0.5750     0.0000    -0.8190 hn         1 I5H       0.116700
     19 H2           1.9900     0.0010    -0.8870 h4         1 I5H       0.144000
     20 H5           1.3470    -0.0010     4.1830 ha         1 I5H       0.106000
     21 H6          -0.9090    -0.0030     5.1300 ha         1 I5H       0.106000
     22 H7          -2.8810    -0.0030     3.6570 ha         1 I5H       0.103000
     23 H8          -2.6150    -0.0020     1.2130 ha         1 I5H       0.101000
     24 H10          3.8810     0.4320     0.9050 hc         1 I5H       0.032700
     25 H10A         3.3800     0.5850     2.5950 hc         1 I5H       0.032700
     26 H11          3.4990    -2.0760     1.1090 h1         1 I5H       0.060700
     27 HN13         6.1650    -2.1190     4.0030 hn         1 I5H       0.206500
     28 HN15         2.1170    -2.0840     3.3430 hn         1 I5H       0.233500
@<TRIPOS>BOND
     1     1     2 1   
     2     1     9 1   
     3     1    18 1   
     4     2     3 2   
     5     2    19 1   
     6     3     4 1   
     7     3    10 1   
     8     4     5 ar  
     9     4     9 ar  
    10     5     6 ar  
    11     5    20 1   
    12     6     7 ar  
    13     6    21 1   
    14     7     8 ar  
    15     7    22 1   
    16     8     9 ar  
    17     8    23 1   
    18    10    11 1   
    19    10    24 1   
    20    10    25 1   
    21    11    12 1   
    22    11    15 1   
    23    11    26 1   
    24    12    13 1   
    25    12    16 2   
    26    13    14 1   
    27    13    27 1   
    28    14    15 1   
    29    14    17 2   
    30    15    28 1   
@<TRIPOS>SUBSTRUCTURE
     1 I5H         1 TEMP              0 ****  ****    0 ROOT
