@<TRIPOS>MOLECULE
I5I
   26    28     1     0     0
SMALL
bcc


@<TRIPOS>ATOM
      1 C1         -0.1060    0.0420    0.1750 ca        1 I5I      0.203400
      2 C2          1.2990    0.1030    0.0320 ca        1 I5I     -0.063000
      3 C3          2.0760    0.0630    1.1820 ca        1 I5I     -0.106800
      4 C4          1.4480   -0.0370    2.4620 ca        1 I5I      0.066100
      5 C5          0.0690   -0.0980    2.6220 ca        1 I5I     -0.107000
      6 C6         -0.7000   -0.0570    1.4660 ca        1 I5I     -0.138000
      7 C7          3.5030    0.1000    1.4450 cc        1 I5I     -0.104200
      8 C8          3.6530    0.0250    2.8110 cd        1 I5I     -0.014500
      9 O9          2.4050   -0.0630    3.4770 os        1 I5I     -0.195200
     10 C10         4.8390    0.0130    3.6520 cf        1 I5I      0.610500
     11 N11         4.7400    0.2680    5.0670 nh        1 I5I     -0.797200
     12 C12         6.0960    0.0810    5.5930 c3        1 I5I      0.129800
     13 C13         6.9810   -0.1390    4.3180 c3        1 I5I      0.075800
     14 N14         6.0600   -0.1680    3.1830 n2        1 I5I     -0.595900
     15 N15        -0.8770    0.0820   -0.9790 ne        1 I5I     -0.576800
     16 C16        -2.0740    0.0590   -1.2720 c1        1 I5I      0.460300
     17 S17        -3.4120    0.0470   -1.8620 s         1 I5I     -0.156900
     18 H2          1.7680    0.1810   -0.9600 ha        1 I5I      0.161000
     19 H5         -0.3900   -0.1730    3.6170 ha        1 I5I      0.158000
     20 H6         -1.7960   -0.1020    1.5570 ha        1 I5I      0.143000
     21 H7          4.2930    0.1720    0.7000 ha        1 I5I      0.184000
     22 HN11        4.0160   -0.2390    5.5290 hn        1 I5I      0.406800
     23 H12         6.1730   -0.7880    6.2950 h1        1 I5I      0.056200
     24 H12A        6.3940    1.0160    6.1330 h1        1 I5I      0.056200
     25 H13         7.5490   -1.1030    4.3660 h1        1 I5I      0.072200
     26 H13A        7.7080    0.7050    4.1890 h1        1 I5I      0.072200
@<TRIPOS>BOND
     1    1    2 ar  
     2    1    6 ar  
     3    1   15 1   
     4    2    3 ar  
     5    2   18 1   
     6    3    4 ar  
     7    3    7 1   
     8    4    5 ar  
     9    4    9 1   
    10    5    6 ar  
    11    5   19 1   
    12    6   20 1   
    13    7    8 2   
    14    7   21 1   
    15    8    9 1   
    16    8   10 1   
    17   10   11 1   
    18   10   14 2   
    19   11   12 1   
    20   11   22 1   
    21   12   13 1   
    22   12   23 1   
    23   12   24 1   
    24   13   14 1   
    25   13   25 1   
    26   13   26 1   
    27   15   16 2   
    28   16   17 2   
@<TRIPOS>SUBSTRUCTURE
     1 I5I         1 TEMP              0 ****  ****    0 ROOT
