@<TRIPOS>MOLECULE
I5R
   35    38     1     0     0
SMALL
bcc


@<TRIPOS>ATOM
      1 O           0.1010    0.1660   -0.2170 o         1 I5R     -0.616500
      2 C           1.3340    0.0700   -0.0940 c         1 I5R      0.676500
      3 NAL         1.8950    0.0400    1.1730 n         1 I5R     -0.543400
      4 CAR         3.2770   -0.1400    1.3620 ca        1 I5R      0.495200
      5 NAK         3.7910    0.0090    2.6190 nb        1 I5R     -0.687000
      6 CAE         5.1030   -0.2140    2.7840 ca        1 I5R      0.406200
      7 CAD         5.9750   -0.5830    1.7470 ca        1 I5R     -0.256300
      8 CAF         5.4660   -0.7180    0.4590 ca        1 I5R     -0.094000
      9 CAQ         4.0960   -0.4880    0.2250 ca        1 I5R     -0.027700
     10 N           3.5760   -0.5540   -1.0810 nh        1 I5R     -0.717600
     11 CA          2.2590   -0.0020   -1.3210 c3        1 I5R      0.137500
     12 CB          2.3160    1.4280   -1.9100 c3        1 I5R      0.000800
     13 CG          2.8500    1.4320   -3.2760 cc        1 I5R     -0.148400
     14 CD2         2.0740    1.3910   -4.5000 ca        1 I5R     -0.088800
     15 CE3         0.7090    1.3280   -4.7850 ca        1 I5R     -0.086000
     16 CZ3         0.3010    1.3060   -6.1110 ca        1 I5R     -0.156000
     17 CH2         1.2330    1.3470   -7.1630 ca        1 I5R     -0.114000
     18 CZ2         2.5970    1.4110   -6.9250 ca        1 I5R     -0.146000
     19 CE2         3.0250    1.4330   -5.5890 ca        1 I5R     -0.049200
     20 NE1         4.3090    1.4900   -5.0390 na        1 I5R     -0.195400
     21 CD1         4.1940    1.4970   -3.6480 cd        1 I5R     -0.083100
     22 H1          1.3110    0.1970    1.9680 hn        1 I5R      0.345500
     23 H2          5.4700   -0.0900    3.8190 h4        1 I5R      0.027100
     24 H3          7.0400   -0.7580    1.9520 ha        1 I5R      0.147000
     25 H4          6.1290   -1.0010   -0.3720 ha        1 I5R      0.145000
     26 H5          3.7070   -1.4540   -1.4990 hn        1 I5R      0.404800
     27 H6          1.7270   -0.6560   -2.0780 h1        1 I5R      0.092700
     28 H7          2.9370    2.0870   -1.2480 hc        1 I5R      0.065700
     29 H8          1.2650    1.8280   -1.9160 hc        1 I5R      0.065700
     30 H9         -0.0250    1.2980   -3.9660 ha        1 I5R      0.139000
     31 H10        -0.7710    1.2570   -6.3510 ha        1 I5R      0.131000
     32 H11         0.8670    1.3280   -8.2010 ha        1 I5R      0.129000
     33 H12         3.3180    1.4430   -7.7520 ha        1 I5R      0.131000
     34 H13         5.1460    1.5640   -5.5510 hn        1 I5R      0.297700
     35 H14         5.0810    1.5380   -3.0120 h4        1 I5R      0.170000
@<TRIPOS>BOND
     1    1    2 2   
     2    2    3 1   
     3    2   11 1   
     4    3    4 1   
     5    3   22 1   
     6    4    5 ar  
     7    4    9 ar  
     8    5    6 ar  
     9    6    7 ar  
    10    6   23 1   
    11    7    8 ar  
    12    7   24 1   
    13    8    9 ar  
    14    8   25 1   
    15    9   10 1   
    16   10   11 1   
    17   10   26 1   
    18   11   12 1   
    19   11   27 1   
    20   12   13 1   
    21   12   28 1   
    22   12   29 1   
    23   13   14 1   
    24   13   21 2   
    25   14   15 ar  
    26   14   19 ar  
    27   15   16 ar  
    28   15   30 1   
    29   16   17 ar  
    30   16   31 1   
    31   17   18 ar  
    32   17   32 1   
    33   18   19 ar  
    34   18   33 1   
    35   19   20 1   
    36   20   21 1   
    37   20   34 1   
    38   21   35 1   
@<TRIPOS>SUBSTRUCTURE
     1 I5R         1 TEMP              0 ****  ****    0 ROOT
