@<TRIPOS>MOLECULE
I5S
   50    52     1     0     0
SMALL
bcc


@<TRIPOS>ATOM
      1 Cl1          0.0000     0.0000     0.0000 cl         1 I5S      -0.029400
      2 C2           1.7360     0.0000     0.0000 ca         1 I5S      -0.026600
      3 C3           2.4280     0.0000     1.1970 ca         1 I5S      -0.103000
      4 C4           3.8100     0.0000     1.1970 ca         1 I5S      -0.067000
      5 C5           4.5010     0.0010    -0.0000 ca         1 I5S      -0.106300
      6 C6           6.0080     0.0010    -0.0000 c3         1 I5S       0.255700
      7 O7           6.4850    -1.3460    -0.0010 os         1 I5S      -0.374600
      8 C8           7.9120    -1.2790    -0.0010 c3         1 I5S       0.200400
      9 C9           8.4900    -2.6950    -0.0010 c3         1 I5S       0.130800
     10 N10          8.1320    -3.3700    -1.2570 n7         1 I5S      -0.555200
     11 C13          8.7140    -4.7160    -1.1930 c3         1 I5S       0.123800
     12 C14          8.3780    -5.4790    -2.4760 c3         1 I5S       0.223800
     13 N15          8.9580    -6.8220    -2.4120 n7         1 I5S      -0.588100
     14 S16          8.4490    -7.9950    -3.4650 sy         1 I5S       1.049200
     15 O17          7.0280    -7.9490    -3.4350 o          1 I5S      -0.583300
     16 O18          9.2400    -9.1410    -3.1810 o          1 I5S      -0.583300
     17 C19          8.9100    -7.4850    -5.0860 ca         1 I5S      -0.158500
     18 C20          7.9550    -7.2170    -6.0200 ca         1 I5S       0.047000
     19 C21          8.3020    -6.8120    -7.3080 ca         1 I5S      -0.146000
     20 C22          9.6060    -6.6700    -7.6720 ca         1 I5S      -0.011000
     21 C23         10.6180    -6.9370    -6.7370 ca         1 I5S      -0.195300
     22 C24         11.9800    -6.8090    -7.0560 ca         1 I5S       0.439200
     23 N25         12.8910    -7.0700    -6.1470 nb         1 I5S      -0.591000
     24 C26         12.5870    -7.4560    -4.9160 ca         1 I5S       0.420200
     25 C27         11.2970    -7.6100    -4.5080 ca         1 I5S      -0.236300
     26 C28         10.2630    -7.3450    -5.4240 ca         1 I5S       0.067000
     27 C29          3.8100     0.0010    -1.1980 ca         1 I5S      -0.067000
     28 C30          2.4280    -0.0060    -1.1980 ca         1 I5S      -0.103000
     29 H3           1.8870    -0.0010     2.1360 ha         1 I5S       0.114500
     30 H4           4.3520     0.0000     2.1360 ha         1 I5S       0.108500
     31 H6C1         6.3680     0.5120     0.8850 h1         1 I5S      -0.004800
     32 H6C2         6.3690     0.5130    -0.8840 h1         1 I5S      -0.004800
     33 H8C1         8.2490    -0.7510    -0.8850 h1         1 I5S      -0.007800
     34 H8C2         8.2490    -0.7520     0.8840 h1         1 I5S      -0.007800
     35 H9C1         9.5680    -2.6450     0.0870 h1         1 I5S       0.016200
     36 H9C2         8.0840    -3.2500     0.8350 h1         1 I5S       0.016200
     37 H10          8.5290    -2.8710    -2.0290 hn         1 I5S       0.249800
     38 H131         9.7890    -4.6410    -1.0890 h1         1 I5S       0.011700
     39 H132         8.3050    -5.2460    -0.3410 h1         1 I5S       0.011700
     40 H141         7.3020    -5.5540    -2.5800 h1         1 I5S       0.021700
     41 H142         8.7860    -4.9490    -3.3280 h1         1 I5S       0.021700
     42 H15          9.6270    -7.0450    -1.7010 hn         1 I5S       0.349800
     43 H20          6.9090    -7.3210    -5.7580 ha         1 I5S       0.130000
     44 H21          7.5210    -6.6050    -8.0300 ha         1 I5S       0.112000
     45 H22          9.8610    -6.3550    -8.6760 ha         1 I5S       0.107000
     46 H24         12.2780    -6.4960    -8.0490 h4         1 I5S      -0.017900
     47 H26         13.3880    -7.6550    -4.2150 h4         1 I5S      -0.020900
     48 H27         11.0720    -7.9270    -3.4970 ha         1 I5S       0.142000
     49 H29          4.3520    -0.0010    -2.1360 ha         1 I5S       0.108500
     50 H30          1.8870    -0.0060    -2.1370 ha         1 I5S       0.114500
@<TRIPOS>BOND
     1     1     2 1   
     2     2     3 ar  
     3     2    28 ar  
     4     3     4 ar  
     5     3    29 1   
     6     4     5 ar  
     7     4    30 1   
     8     5     6 1   
     9     5    27 ar  
    10     6     7 1   
    11     6    31 1   
    12     6    32 1   
    13     7     8 1   
    14     8     9 1   
    15     8    33 1   
    16     8    34 1   
    17     9    10 1   
    18     9    35 1   
    19     9    36 1   
    20    10    11 1   
    21    10    37 1   
    22    11    12 1   
    23    11    38 1   
    24    11    39 1   
    25    12    13 1   
    26    12    40 1   
    27    12    41 1   
    28    13    14 1   
    29    13    42 1   
    30    14    15 2   
    31    14    16 2   
    32    14    17 1   
    33    17    18 ar  
    34    17    26 ar  
    35    18    19 ar  
    36    18    43 1   
    37    19    20 ar  
    38    19    44 1   
    39    20    21 ar  
    40    20    45 1   
    41    21    22 ar  
    42    21    26 ar  
    43    22    23 ar  
    44    22    46 1   
    45    23    24 ar  
    46    24    25 ar  
    47    24    47 1   
    48    25    26 ar  
    49    25    48 1   
    50    27    28 ar  
    51    27    49 1   
    52    28    50 1   
@<TRIPOS>SUBSTRUCTURE
     1 I5S         1 TEMP              0 ****  ****    0 ROOT
