@<TRIPOS>MOLECULE
molecule
   52    56     1     0     0
SMALL
bcc


@<TRIPOS>ATOM
      1 C1           0.0000     0.0000     0.0000 ca         1 I5T      -0.129000
      2 C2           7.8010    -8.0160    10.1160 ca         1 I5T      -0.178000
      3 C3           1.3820     0.0000     0.0000 ca         1 I5T      -0.123500
      4 C4          -0.6910    -0.0010     1.1970 ca         1 I5T      -0.123500
      5 C5           8.1690    -7.6360     8.8350 ca         1 I5T      -0.067000
      6 C6           7.0270    -7.1800    10.8920 ca         1 I5T      -0.035000
      7 C7           2.0740     0.0000     1.1970 ca         1 I5T      -0.123500
      8 C8           0.0010    -0.0010     2.3940 ca         1 I5T      -0.123500
      9 C9           7.7720    -6.4200     8.3190 ca         1 I5T      -0.174000
     10 C10          6.6180    -5.9480    10.3790 ca         1 I5T      -0.260600
     11 C11          1.3830     0.0010     2.3940 ca         1 I5T      -0.046300
     12 C12          6.9950    -5.5600     9.0830 ca         1 I5T       0.184100
     13 C13          5.7820    -5.0380    11.1830 c          1 I5T       0.584700
     14 C14          3.0760    -2.9140     5.8890 c          1 I5T       0.792100
     15 C15          5.6210    -3.6230    10.6560 c3         1 I5T      -0.205400
     16 C16          4.2130    -4.5430     8.8080 c3         1 I5T      -0.106400
     17 C17          5.3240    -2.3170     8.5450 c3         1 I5T      -0.106400
     18 C18          1.3290     0.2030     4.9820 cx         1 I5T      -0.155400
     19 C19          4.0650    -4.6640     7.2870 c3         1 I5T       0.119000
     20 C20          5.1880    -2.4150     7.0220 c3         1 I5T       0.119000
     21 C21          2.1370    -0.0010     3.6990 cx         1 I5T      -0.107400
     22 C22          1.9020    -1.1760     4.6500 cx         1 I5T       0.091700
     23 C23          5.4630    -3.7230     9.1320 c3         1 I5T       0.163800
     24 N24          4.0730    -3.3160     6.7030 n          1 I5T      -0.511800
     25 N25          3.0420    -1.6430     5.4420 ns         1 I5T      -0.573900
     26 O26          5.2510    -5.4000    12.2110 o          1 I5T      -0.518100
     27 O27          2.2070    -3.6980     5.5600 o          1 I5T      -0.652100
     28 O28          6.6120    -4.3640     8.5790 os         1 I5T      -0.325900
     29 H1          -0.5420     0.0000    -0.9380 ha         1 I5T       0.129000
     30 H3           1.9240     0.0000    -0.9380 ha         1 I5T       0.130000
     31 H4          -1.7740    -0.0020     1.1980 ha         1 I5T       0.130000
     32 H2           8.1200    -8.9740    10.5080 ha         1 I5T       0.138000
     33 H5           8.7780    -8.3010     8.2330 ha         1 I5T       0.137000
     34 H6           6.7390    -7.4770    11.8930 ha         1 I5T       0.153000
     35 H7           3.1580     0.0010     1.1960 ha         1 I5T       0.131000
     36 H8          -0.5410    -0.0010     3.3320 ha         1 I5T       0.131000
     37 H9           8.0670    -6.1360     7.3160 ha         1 I5T       0.147000
     38 H21          3.1390     0.4100     3.7250 hc         1 I5T       0.082700
     39 H151         6.5000    -3.0380    10.8970 hc         1 I5T       0.083200
     40 H152         4.7370    -3.1680    11.0880 hc         1 I5T       0.083200
     41 H25          3.8160    -1.0320     5.6140 hn         1 I5T       0.313500
     42 H161         4.3080    -5.5310     9.2400 hc         1 I5T       0.066200
     43 H162         3.3410    -4.0460     9.2160 hc         1 I5T       0.066200
     44 H191         4.8920    -5.2380     6.8870 h1         1 I5T       0.061700
     45 H192         3.1280    -5.1550     7.0530 h1         1 I5T       0.061700
     46 H171         4.4420    -1.8410     8.9560 hc         1 I5T       0.066200
     47 H172         6.2040    -1.7350     8.7920 hc         1 I5T       0.066200
     48 H201         6.1050    -2.8100     6.6010 h1         1 I5T       0.061700
     49 H202         4.9880    -1.4320     6.6130 h1         1 I5T       0.061700
     50 H181         1.8360     0.7420     5.7730 hc         1 I5T       0.080700
     51 H182         0.2590     0.3090     4.8490 hc         1 I5T       0.080700
     52 H22          1.1730    -1.9000     4.3050 h1         1 I5T       0.132700
@<TRIPOS>BOND
     1     1     3 ar
     2     1     4 ar
     3     2     5 ar
     4     2     6 ar
     5     3     7 ar
     6     4     8 ar
     7     5     9 ar
     8     6    10 ar
     9     7    11 ar
    10     8    11 ar
    11     9    12 ar
    12    10    12 ar
    13    10    13 1
    14    11    21 1
    15    12    28 1
    16    13    15 1
    17    13    26 2
    18    14    24 1
    19    14    25 1
    20    14    27 2
    21    15    23 1
    22    16    19 1
    23    16    23 1
    24    17    20 1
    25    17    23 1
    26    18    21 1
    27    18    22 1
    28    19    24 1
    29    20    24 1
    30    21    22 1
    31    22    25 1
    32    23    28 1
    33     1    29 1
    34     3    30 1
    35     4    31 1
    36     2    32 1
    37     5    33 1
    38     6    34 1
    39     7    35 1
    40     8    36 1
    41     9    37 1
    42    21    38 1
    43    15    39 1
    44    15    40 1
    45    25    41 1
    46    16    42 1
    47    16    43 1
    48    19    44 1
    49    19    45 1
    50    17    46 1
    51    17    47 1
    52    20    48 1
    53    20    49 1
    54    18    50 1
    55    18    51 1
    56    22    52 1
@<TRIPOS>SUBSTRUCTURE
     1 I5T         1 TEMP              0 ****  ****    0 ROOT
