@<TRIPOS>MOLECULE
I5T
   52    56     1     0     0
SMALL
bcc


@<TRIPOS>ATOM
      1 C1           0.0000     0.0000     0.0000 ca         1 I5T      -0.104000
      2 C2           7.8010    -8.0160    10.1160 ca         1 I5T      -0.157000
      3 C3           1.3820     0.0000     0.0000 ca         1 I5T      -0.095000
      4 C4          -0.6910    -0.0010     1.1970 ca         1 I5T      -0.095000
      5 C5           8.1690    -7.6360     8.8350 ca         1 I5T      -0.031000
      6 C6           7.0270    -7.1800    10.8920 ca         1 I5T       0.004000
      7 C7           2.0740     0.0000     1.1970 ca         1 I5T      -0.101500
      8 C8           0.0010    -0.0010     2.3940 ca         1 I5T      -0.101500
      9 C9           7.7720    -6.4200     8.3190 ca         1 I5T      -0.159000
     10 C10          6.6180    -5.9480    10.3790 ca         1 I5T      -0.277600
     11 C11          1.3830     0.0010     2.3940 ca         1 I5T      -0.047300
     12 C12          6.9950    -5.5600     9.0830 ca         1 I5T       0.197100
     13 C13          5.7820    -5.0380    11.1830 c          1 I5T       0.640700
     14 C14          3.0760    -2.9140     5.8890 c          1 I5T       0.599100
     15 C15          5.6210    -3.6230    10.6560 c3         1 I5T      -0.153400
     16 C16          4.2130    -4.5430     8.8080 c3         1 I5T      -0.061400
     17 C17          5.3240    -2.3170     8.5450 c3         1 I5T      -0.061400
     18 C18          1.3290     0.2030     4.9820 cx         1 I5T      -0.105400
     19 C19          4.0650    -4.6640     7.2870 c3         1 I5T       0.060000
     20 C20          5.1880    -2.4150     7.0220 c3         1 I5T       0.060000
     21 C21          2.1370    -0.0010     3.6990 cx         1 I5T      -0.066400
     22 C22          1.9020    -1.1760     4.6500 cx         1 I5T      -0.017300
     23 C23          5.4630    -3.7230     9.1320 c3         1 I5T       0.170800
     24 N24          4.0730    -3.3160     6.7030 n          1 I5T      -0.181800
     25 N25          3.0420    -1.6430     5.4420 ns         1 I5T      -0.179900
     26 O26          5.2510    -5.4000    12.2110 o          1 I5T      -0.550100
     27 O27          2.2070    -3.6980     5.5600 o          1 I5T      -0.698100
     28 O28          6.6120    -4.3640     8.5790 os         1 I5T      -0.300900
     29 H1          -0.5420     0.0000    -0.9380 ha         1 I5T       0.102000
     30 H3           1.9240     0.0000    -0.9380 ha         1 I5T       0.102500
     31 H4          -1.7740    -0.0020     1.1980 ha         1 I5T       0.102500
     32 H2           8.1200    -8.9740    10.5080 ha         1 I5T       0.111000
     33 H5           8.7780    -8.3010     8.2330 ha         1 I5T       0.103000
     34 H6           6.7390    -7.4770    11.8930 ha         1 I5T       0.121000
     35 H7           3.1580     0.0010     1.1960 ha         1 I5T       0.109000
     36 H8          -0.5410    -0.0010     3.3320 ha         1 I5T       0.109000
     37 H9           8.0670    -6.1360     7.3160 ha         1 I5T       0.119000
     38 H21          3.1390     0.4100     3.7250 hc         1 I5T       0.056700
     39 H151         6.5000    -3.0380    10.8970 hc         1 I5T       0.052200
     40 H152         4.7370    -3.1680    11.0880 hc         1 I5T       0.052200
     41 H25          3.8160    -1.0320     5.6140 hn         1 I5T       0.174500
     42 H161         4.3080    -5.5310     9.2400 hc         1 I5T       0.037200
     43 H162         3.3410    -4.0460     9.2160 hc         1 I5T       0.037200
     44 H191         4.8920    -5.2380     6.8870 h1         1 I5T       0.034200
     45 H192         3.1280    -5.1550     7.0530 h1         1 I5T       0.034200
     46 H171         4.4420    -1.8410     8.9560 hc         1 I5T       0.037200
     47 H172         6.2040    -1.7350     8.7920 hc         1 I5T       0.037200
     48 H201         6.1050    -2.8100     6.6010 h1         1 I5T       0.034200
     49 H202         4.9880    -1.4320     6.6130 h1         1 I5T       0.034200
     50 H181         1.8360     0.7420     5.7730 hc         1 I5T       0.053700
     51 H182         0.2590     0.3090     4.8490 hc         1 I5T       0.053700
     52 H22          1.1730    -1.9000     4.3050 h1         1 I5T       0.105700
@<TRIPOS>BOND
     1     1     3 ar  
     2     1     4 ar  
     3     1    29 1   
     4     2     5 ar  
     5     2     6 ar  
     6     2    32 1   
     7     3     7 ar  
     8     3    30 1   
     9     4     8 ar  
    10     4    31 1   
    11     5     9 ar  
    12     5    33 1   
    13     6    10 ar  
    14     6    34 1   
    15     7    11 ar  
    16     7    35 1   
    17     8    11 ar  
    18     8    36 1   
    19     9    12 ar  
    20     9    37 1   
    21    10    12 ar  
    22    10    13 1   
    23    11    21 1   
    24    12    28 1   
    25    13    15 1   
    26    13    26 2   
    27    14    24 1   
    28    14    25 1   
    29    14    27 2   
    30    15    23 1   
    31    15    39 1   
    32    15    40 1   
    33    16    19 1   
    34    16    23 1   
    35    16    42 1   
    36    16    43 1   
    37    17    20 1   
    38    17    23 1   
    39    17    46 1   
    40    17    47 1   
    41    18    21 1   
    42    18    22 1   
    43    18    50 1   
    44    18    51 1   
    45    19    24 1   
    46    19    44 1   
    47    19    45 1   
    48    20    24 1   
    49    20    48 1   
    50    20    49 1   
    51    21    22 1   
    52    21    38 1   
    53    22    25 1   
    54    22    52 1   
    55    23    28 1   
    56    25    41 1   
@<TRIPOS>SUBSTRUCTURE
     1 I5T         1 TEMP              0 ****  ****    0 ROOT
