@<TRIPOS>MOLECULE
I5U
   67    70     1     0     0
SMALL
bcc


@<TRIPOS>ATOM
      1 N26          0.0000     0.0000     0.0000 nz         1 I5U       0.203400
      2 C26          1.3790     0.0000     0.0000 ce         1 I5U       0.232800
      3 C25          2.1120     0.0000     1.2720 cc         1 I5U      -0.197000
      4 S21          3.8500     0.2090     1.4470 ss         1 I5U      -0.150800
      5 C22          3.7420     0.0720     3.1440 cc         1 I5U       0.053900
      6 C23          2.4760    -0.1170     3.5290 cd         1 I5U      -0.126000
      7 C24          1.5540    -0.1550     2.5080 cd         1 I5U      -0.043000
      8 N27          2.0370    -0.0020    -1.1390 nf         1 I5U      -0.305100
      9 C31          3.3950    -0.1590    -1.1440 ca         1 I5U       0.010400
     10 C32          3.9620    -1.3780    -0.7630 ca         1 I5U      -0.044000
     11 C33          5.3330    -1.5300    -0.7710 ca         1 I5U      -0.062000
     12 C34          6.1470    -0.4770    -1.1530 ca         1 I5U      -0.018000
     13 C36          4.2230     0.8970    -1.5340 ca         1 I5U      -0.041000
     14 C35          5.5930     0.7330    -1.5320 ca         1 I5U      -0.117300
     15 C37          6.4870     1.8720    -1.9460 c3         1 I5U       0.269700
     16 O38          6.7160     1.8090    -3.3550 os         1 I5U      -0.370600
     17 C20          7.5580     2.8500    -3.8550 c3         1 I5U       0.167100
     18 C21          6.6990     4.0500    -4.2600 c3         1 I5U      -0.083200
     19 N22          6.0500     4.6110    -3.0680 nz         1 I5U       0.061400
     20 C19          8.3300     2.3420    -5.0730 c3         1 I5U       0.217400
     21 O18          7.4140     2.0560    -6.1330 os         1 I5U      -0.426600
     22 C17          8.0370     1.5720    -7.3250 c3         1 I5U       0.280700
     23 C15          6.9840     1.3040    -8.3680 ca         1 I5U      -0.095300
     24 C14          6.6100     2.3050    -9.2460 ca         1 I5U      -0.110000
     25 C13          5.6440     2.0640   -10.2050 ca         1 I5U      -0.063000
     26 C12          5.0480     0.8200   -10.2890 ca         1 I5U      -0.120000
     27 C16          6.3960     0.0570    -8.4510 ca         1 I5U      -0.139000
     28 C11          5.4210    -0.1880    -9.4100 ca         1 I5U       0.014600
     29 N07          4.8200    -1.4470    -9.4930 nu         1 I5U      -0.326600
     30 C06          4.5730    -2.1720    -8.3430 ce         1 I5U       0.566800
     31 N06          4.7710    -1.6260    -7.1720 n2         1 I5U      -0.808100
     32 C05          4.0880    -3.5570    -8.4360 cc         1 I5U      -0.087000
     33 S01          3.7770    -4.4300    -9.9300 ss         1 I5U      -0.215800
     34 C02          3.2950    -5.8220    -9.0710 cc         1 I5U       0.014900
     35 C03          3.3720    -5.6210    -7.7530 cd         1 I5U      -0.148000
     36 C04          3.8150    -4.3710    -7.3780 cd         1 I5U      -0.058000
     37 H261        -0.3340    -0.8560     0.3970 hn         1 I5U       0.221800
     38 H262        -0.3340     0.7720     0.5430 hn         1 I5U       0.221800
     39 H24          0.4920    -0.3010     2.6680 ha         1 I5U       0.114000
     40 H22          4.5870     0.1290     3.8190 h4         1 I5U       0.173000
     41 H23          2.1950    -0.2260     4.5700 ha         1 I5U       0.152000
     42 H32          3.3260    -2.2020    -0.4630 ha         1 I5U       0.123000
     43 H36          3.7900     1.8450    -1.8310 ha         1 I5U       0.097000
     44 H33          5.7740    -2.4740    -0.4750 ha         1 I5U       0.135000
     45 H34          7.2230    -0.6010    -1.1560 ha         1 I5U       0.125000
     46 H371         7.4330     1.7980    -1.4230 h1         1 I5U      -0.021300
     47 H372         6.0110     2.8140    -1.7000 h1         1 I5U      -0.021300
     48 H20          8.2580     3.1510    -3.0840 h1         1 I5U       0.026700
     49 H211         5.9420     3.7300    -4.9660 hx         1 I5U       0.105700
     50 H212         7.3260     4.8040    -4.7190 hx         1 I5U       0.105700
     51 H191         8.8690     1.4410    -4.8090 h1         1 I5U       0.022200
     52 H192         9.0320     3.1000    -5.3980 h1         1 I5U       0.022200
     53 H221         5.8020     5.5660    -3.2410 hn         1 I5U       0.226800
     54 H222         6.6800     4.5660    -2.2920 hn         1 I5U       0.226800
     55 H171         8.7330     2.3140    -7.6960 h1         1 I5U       0.006200
     56 H172         8.5710     0.6540    -7.1060 h1         1 I5U       0.006200
     57 H14          7.0820     3.2780    -9.1880 ha         1 I5U       0.105000
     58 H16          6.7450    -0.7490    -7.8170 ha         1 I5U       0.138000
     59 H13          5.3490     2.8520   -10.8860 ha         1 I5U       0.113000
     60 H12          4.3270     0.6170   -11.0720 ha         1 I5U       0.120000
     61 H07          4.5280    -1.8040   -10.3810 hn         1 I5U       0.306800
     62 H06          5.1010    -0.6830    -7.1080 hn         1 I5U       0.347400
     63 H04          3.9290    -4.0650    -6.3450 ha         1 I5U       0.132000
     64 H02          2.9680    -6.7460    -9.5340 h4         1 I5U       0.159000
     65 H03          3.1110    -6.3860    -7.0320 ha         1 I5U       0.125000
     66 H263        -0.3340     0.0700    -0.9410 hn         1 I5U       0.221800
     67 H223         5.2180     4.0930    -2.8650 hn         1 I5U       0.226800
@<TRIPOS>BOND
     1     1     2 1   
     2     1    37 1   
     3     1    38 1   
     4     1    66 1   
     5     2     3 1   
     6     2     8 2   
     7     3     4 1   
     8     3     7 2   
     9     4     5 1   
    10     5     6 2   
    11     5    40 1   
    12     6     7 1   
    13     6    41 1   
    14     7    39 1   
    15     8     9 1   
    16     9    10 ar  
    17     9    13 ar  
    18    10    11 ar  
    19    10    42 1   
    20    11    12 ar  
    21    11    44 1   
    22    12    14 ar  
    23    12    45 1   
    24    13    14 ar  
    25    13    43 1   
    26    14    15 1   
    27    15    16 1   
    28    15    46 1   
    29    15    47 1   
    30    16    17 1   
    31    17    18 1   
    32    17    20 1   
    33    17    48 1   
    34    18    19 1   
    35    18    49 1   
    36    18    50 1   
    37    19    53 1   
    38    19    54 1   
    39    19    67 1   
    40    20    21 1   
    41    20    51 1   
    42    20    52 1   
    43    21    22 1   
    44    22    23 1   
    45    22    55 1   
    46    22    56 1   
    47    23    24 ar  
    48    23    27 ar  
    49    24    25 ar  
    50    24    57 1   
    51    25    26 ar  
    52    25    59 1   
    53    26    28 ar  
    54    26    60 1   
    55    27    28 ar  
    56    27    58 1   
    57    28    29 1   
    58    29    30 1   
    59    29    61 1   
    60    30    31 2   
    61    30    32 1   
    62    31    62 1   
    63    32    33 1   
    64    32    36 2   
    65    33    34 1   
    66    34    35 2   
    67    34    64 1   
    68    35    36 1   
    69    35    65 1   
    70    36    63 1   
@<TRIPOS>SUBSTRUCTURE
     1 I5U         1 TEMP              0 ****  ****    0 ROOT
