@<TRIPOS>MOLECULE
molecule
   67    70     1     0     0
SMALL
bcc


@<TRIPOS>ATOM
      1 N26          0.0000     0.0000     0.0000 nz         1 I5U      -0.734600
      2 C26          1.3790     0.0000     0.0000 ce         1 I5U       0.547800
      3 C25          2.1120     0.0000     1.2720 cc         1 I5U      -0.266000
      4 S21          3.8500     0.2090     1.4470 ss         1 I5U       0.033200
      5 C22          3.7420     0.0720     3.1440 cc         1 I5U      -0.063100
      6 C23          2.4760    -0.1170     3.5290 cd         1 I5U      -0.154000
      7 C24          1.5540    -0.1550     2.5080 cd         1 I5U      -0.087000
      8 N27          2.0370    -0.0020    -1.1390 nf         1 I5U      -0.520100
      9 C31          3.3950    -0.1590    -1.1440 ca         1 I5U       0.084400
     10 C32          3.9620    -1.3780    -0.7630 ca         1 I5U      -0.093000
     11 C33          5.3330    -1.5300    -0.7710 ca         1 I5U      -0.102000
     12 C34          6.1470    -0.4770    -1.1530 ca         1 I5U      -0.064000
     13 C36          4.2230     0.8970    -1.5340 ca         1 I5U      -0.080000
     14 C35          5.5930     0.7330    -1.5320 ca         1 I5U      -0.095300
     15 C37          6.4870     1.8720    -1.9460 c3         1 I5U       0.178700
     16 O38          6.7160     1.8090    -3.3550 os         1 I5U      -0.380600
     17 C20          7.5580     2.8500    -3.8550 c3         1 I5U       0.125100
     18 C21          6.6990     4.0500    -4.2600 c3         1 I5U       0.066800
     19 N22          6.0500     4.6110    -3.0680 nz         1 I5U      -0.815600
     20 C19          8.3300     2.3420    -5.0730 c3         1 I5U       0.147400
     21 O18          7.4140     2.0560    -6.1330 os         1 I5U      -0.433600
     22 C17          8.0370     1.5720    -7.3250 c3         1 I5U       0.192700
     23 C15          6.9840     1.3040    -8.3680 ca         1 I5U      -0.096300
     24 C14          6.6100     2.3050    -9.2460 ca         1 I5U      -0.135000
     25 C13          5.6440     2.0640   -10.2050 ca         1 I5U      -0.109000
     26 C12          5.0480     0.8200   -10.2890 ca         1 I5U      -0.150000
     27 C16          6.3960     0.0570    -8.4510 ca         1 I5U      -0.092000
     28 C11          5.4210    -0.1880    -9.4100 ca         1 I5U       0.170600
     29 N07          4.8200    -1.4470    -9.4930 nu         1 I5U      -0.733600
     30 C06          4.5730    -2.1720    -8.3430 ce         1 I5U       0.737800
     31 N06          4.7710    -1.6260    -7.1720 n2         1 I5U      -0.896100
     32 C05          4.0880    -3.5570    -8.4360 cc         1 I5U      -0.180000
     33 S01          3.7770    -4.4300    -9.9300 ss         1 I5U      -0.058800
     34 C02          3.2950    -5.8220    -9.0710 cc         1 I5U      -0.077100
     35 C03          3.3720    -5.6210    -7.7530 cd         1 I5U      -0.169000
     36 C04          3.8150    -4.3710    -7.3780 cd         1 I5U      -0.118000
     37 H261        -0.3340     0.0850    -0.9400 hn         1 I5U       0.476800
     38 H262        -0.3340    -0.8560     0.3960 hn         1 I5U       0.476800
     39 H24          0.4920    -0.3010     2.6680 ha         1 I5U       0.144000
     40 H22          4.5870     0.1290     3.8190 h4         1 I5U       0.204000
     41 H23          2.1950    -0.2260     4.5700 ha         1 I5U       0.185000
     42 H32          3.3260    -2.2020    -0.4630 ha         1 I5U       0.158000
     43 H36          3.7900     1.8450    -1.8310 ha         1 I5U       0.131000
     44 H33          5.7740    -2.4740    -0.4750 ha         1 I5U       0.172000
     45 H34          7.2230    -0.6010    -1.1560 ha         1 I5U       0.161000
     46 H371         6.0110     2.8140    -1.7000 h1         1 I5U       0.016200
     47 H372         7.4330     1.7980    -1.4230 h1         1 I5U       0.016200
     48 H20          8.2580     3.1510    -3.0840 h1         1 I5U       0.055700
     49 H211         7.3260     4.8040    -4.7190 hx         1 I5U       0.135200
     50 H212         5.9420     3.7300    -4.9660 hx         1 I5U       0.135200
     51 H191         8.8690     1.4410    -4.8090 h1         1 I5U       0.060200
     52 H192         9.0320     3.1000    -5.3980 h1         1 I5U       0.060200
     53 H221         5.2240     4.0860    -2.8580 hn         1 I5U       0.454133
     54 H222         6.6800     4.5660    -2.2920 hn         1 I5U       0.454133
     55 H171         8.7330     2.3140    -7.6960 h1         1 I5U       0.041700
     56 H172         8.5710     0.6540    -7.1060 h1         1 I5U       0.041700
     57 H14          7.0790     3.2800    -9.1840 ha         1 I5U       0.125000
     58 H16          6.7350    -0.7450    -7.8070 ha         1 I5U       0.158000
     59 H13          5.3530     2.8510   -10.8900 ha         1 I5U       0.141000
     60 H12          4.3260     0.6180   -11.0710 ha         1 I5U       0.140000
     61 H07          4.5280    -1.8040   -10.3810 hn         1 I5U       0.459800
     62 H06          4.5920    -2.1510    -6.3390 hn         1 I5U       0.400400
     63 H04          3.9290    -4.0650    -6.3450 ha         1 I5U       0.143000
     64 H02          2.9680    -6.7460    -9.5340 h4         1 I5U       0.186000
     65 H03          3.1110    -6.3860    -7.0320 ha         1 I5U       0.156000
     66 H263        -0.3340     0.7800     0.5320 hn         1 I5U       0.476800
     67 H223         5.8080     5.5670    -3.2390 hn         1 I5U       0.454133
@<TRIPOS>BOND
     1     1     2 1
     2     2     3 1
     3     2     8 2
     4     3     4 1
     5     3     7 2
     6     4     5 1
     7     5     6 2
     8     6     7 1
     9     8     9 1
    10     9    10 ar
    11     9    13 ar
    12    10    11 ar
    13    11    12 ar
    14    12    14 ar
    15    13    14 ar
    16    14    15 1
    17    15    16 1
    18    16    17 1
    19    17    18 1
    20    17    20 1
    21    18    19 1
    22    20    21 1
    23    21    22 1
    24    22    23 1
    25    23    24 ar
    26    23    27 ar
    27    24    25 ar
    28    25    26 ar
    29    26    28 ar
    30    27    28 ar
    31    28    29 1
    32    29    30 1
    33    30    31 2
    34    30    32 1
    35    32    33 1
    36    32    36 2
    37    33    34 1
    38    34    35 2
    39    35    36 1
    40     1    37 1
    41     1    38 1
    42     7    39 1
    43     5    40 1
    44     6    41 1
    45    10    42 1
    46    13    43 1
    47    11    44 1
    48    12    45 1
    49    15    46 1
    50    15    47 1
    51    17    48 1
    52    18    49 1
    53    18    50 1
    54    20    51 1
    55    20    52 1
    56    19    53 1
    57    19    54 1
    58    22    55 1
    59    22    56 1
    60    24    57 1
    61    27    58 1
    62    25    59 1
    63    26    60 1
    64    29    61 1
    65    31    62 1
    66    36    63 1
    67    34    64 1
    68    35    65 1
    69    66     1 1
    70    67    19 1
@<TRIPOS>SUBSTRUCTURE
     1 I5U         1 TEMP              0 ****  ****    0 ROOT
