@<TRIPOS>MOLECULE
molecule
   42    44     1     0     0
SMALL
bcc


@<TRIPOS>ATOM
      1 C11          0.0000     0.0000     0.0000 ca         1 I5W      -0.107000
      2 C12          1.3880     0.0000     0.0000 cp         1 I5W      -0.069000
      3 C13          2.1320     0.0010    -1.2830 cp         1 I5W      -0.014000
      4 C14          2.0460     1.0950    -2.1380 ca         1 I5W      -0.101000
      5 C15          2.7510     1.0910    -3.3380 cp         1 I5W      -0.056000
      6 C16          2.6640     2.2540    -4.2550 cp         1 I5W      -0.019000
      7 C17          3.3700     2.2520    -5.4560 ca         1 I5W      -0.123500
      8 C18          3.2860     3.3370    -6.3050 ca         1 I5W      -0.128500
      9 C19          2.5040     4.4250    -5.9650 ca         1 I5W      -0.138000
     10 C20          1.8010     4.4330    -4.7740 ca         1 I5W      -0.128500
     11 C21          1.8730     3.3500    -3.9210 ca         1 I5W      -0.123500
     12 C22          3.5380    -0.0090    -3.6770 ca         1 I5W      -0.122000
     13 C23          3.6210    -1.0920    -2.8240 ca         1 I5W      -0.138000
     14 C02          2.0850     0.0000     1.2160 ca         1 I5W       0.087100
     15 C03          1.3890    -0.0000     2.4170 ca         1 I5W      -0.186000
     16 C04          0.0130     0.0000     2.4220 ca         1 I5W      -0.114000
     17 C05         -0.6950    -0.0000     1.2130 ca         1 I5W      -0.027800
     18 C06         -2.1650     0.0010     1.2200 ce         1 I5W      -0.180200
     19 C07         -2.8350     0.0010     2.3930 cf         1 I5W      -0.129200
     20 C08         -4.2520     0.0020     2.3990 c          1 I5W       0.858800
     21 O09         -4.9210     0.0020     3.5710 o          1 I5W      -0.839800
     22 O10         -4.8660     0.0030     1.3490 o          1 I5W      -0.839800
     23 C24          2.9240    -1.0930    -1.6320 ca         1 I5W      -0.047300
     24 C25          3.0230    -2.2770    -0.7050 c3         1 I5W      -0.049800
     25 H111        -0.5430    -0.0000    -0.9370 ha         1 I5W       0.142000
     26 H141         1.5100     1.9840    -1.8280 ha         1 I5W       0.139000
     27 H171         3.9840     1.4000    -5.7240 ha         1 I5W       0.135500
     28 H181         3.8340     3.3360    -7.2390 ha         1 I5W       0.125000
     29 H191         2.4420     5.2760    -6.6330 ha         1 I5W       0.122000
     30 H201         1.1870     5.2870    -4.5130 ha         1 I5W       0.125000
     31 H211         1.3220     3.3570    -2.9880 ha         1 I5W       0.135500
     32 H221         4.0870    -0.0130    -4.6110 ha         1 I5W       0.123000
     33 H231         4.2340    -1.9440    -3.0910 ha         1 I5W       0.124000
     34 H011         3.7560     0.7020     1.7620 ho         1 I5W       0.409000
     35 H031         1.9320    -0.0000     3.3550 ha         1 I5W       0.123000
     36 H041        -0.5250     0.0000     3.3630 ha         1 I5W       0.148000
     37 H061        -2.7110     0.0030     0.2840 ha         1 I5W       0.156000
     38 H071        -2.2890    -0.0000     3.3290 ha         1 I5W       0.103000
     39 H251         3.2850    -3.1610    -1.2730 hc         1 I5W       0.048367
     40 H252         2.0700    -2.4320    -0.2140 hc         1 I5W       0.048367
     41 H253         3.7860    -2.0880     0.0410 hc         1 I5W       0.048367
     42 O01          3.4420    -0.0010     1.2180 oh         1 I5W      -0.519100
@<TRIPOS>BOND
     1     9    10 ar
     2     9     8 ar
     3    10    11 ar
     4     8     7 ar
     5    11     6 ar
     6     7     6 ar
     7     6     5 1
     8     5    12 ar
     9     5     4 ar
    10    12    13 ar
    11    22    20 1
    12     4     3 ar
    13    20    21 1
    14    20    19 1
    15    13    23 ar
    16     3    23 ar
    17     3     2 1
    18    18    19 2
    19    18    17 1
    20     1     2 ar
    21     1    17 ar
    22    23    24 1
    23     2    14 ar
    24    17    16 ar
    25    14    42 1
    26    14    15 ar
    27    16    15 ar
    28     1    25 1
    29     4    26 1
    30     7    27 1
    31     8    28 1
    32     9    29 1
    33    10    30 1
    34    11    31 1
    35    12    32 1
    36    13    33 1
    37    42    34 1
    38    15    35 1
    39    16    36 1
    40    18    37 1
    41    19    38 1
    42    24    39 1
    43    24    40 1
    44    24    41 1
@<TRIPOS>SUBSTRUCTURE
     1 I5W         1 TEMP              0 ****  ****    0 ROOT
