@<TRIPOS>MOLECULE
molecule
   82    84     1     0     0
SMALL
bcc


@<TRIPOS>ATOM
      1 O42          0.0000     0.0000     0.0000 o          1 I63      -0.827800
      2 C40          1.3420     0.0000     0.0000 c          1 I63       0.895600
      3 O41          1.9460     0.0000     1.0460 o          1 I63      -0.827800
      4 C39          2.0960    -0.0010    -1.3050 c3         1 I63       0.019400
      5 O38          3.5010    -0.0010    -1.0430 os         1 I63      -0.286900
      6 C26          4.3290    -0.0020    -2.1210 ca         1 I63       0.164100
      7 C25          5.7040    -0.0010    -1.9400 ca         1 I63      -0.150000
      8 C27          3.8000    -0.0080    -3.4040 ca         1 I63      -0.228000
      9 C28          4.6450    -0.0080    -4.4970 ca         1 I63      -0.105000
     10 C29          6.0150    -0.0030    -4.3140 ca         1 I63      -0.169000
     11 C24          6.5450    -0.0020    -3.0370 ca         1 I63      -0.075300
     12 C15          8.0390    -0.0030    -2.8410 c3         1 I63       0.206400
     13 C16          8.5770    -1.4230    -3.0220 c3         1 I63      -0.071400
     14 C17         10.0720    -1.4470    -2.7020 c3         1 I63      -0.038100
     15 C18         10.6020    -2.8470    -2.8810 ca         1 I63      -0.081300
     16 C23         10.5890    -3.7300    -1.8170 ca         1 I63      -0.124000
     17 C22         11.0750    -5.0150    -1.9750 ca         1 I63      -0.186000
     18 C21         11.5740    -5.4200    -3.2020 ca         1 I63       0.106100
     19 O34         12.0520    -6.6840    -3.3600 os         1 I63      -0.318900
     20 C35         12.0080    -7.5410    -2.2170 c3         1 I63       0.128700
     21 C20         11.5870    -4.5320    -4.2730 ca         1 I63       0.122100
     22 O36         12.0760    -4.9240    -5.4800 os         1 I63      -0.318900
     23 C37         12.0570    -3.9590    -6.5340 c3         1 I63       0.129700
     24 C19         11.0940    -3.2470    -4.1090 ca         1 I63      -0.189000
     25 O1           8.6550     0.8760    -3.8190 os         1 I63      -0.431900
     26 C1           8.8140     2.1620    -3.4670 c          1 I63       0.641100
     27 O2           8.4510     2.5400    -2.3790 o          1 I63      -0.518000
     28 C2           9.4460     3.1340    -4.4300 c3         1 I63       0.075700
     29 N7           8.4550     4.1390    -4.8370 n          1 I63      -0.468800
     30 C6           8.8960     5.2720    -5.6610 c3         1 I63       0.072000
     31 C5          10.0740     5.9600    -4.9640 c3         1 I63      -0.101400
     32 C4          11.1670     4.9270    -4.6790 c3         1 I63      -0.081400
     33 C3          10.6200     3.8430    -3.7470 c3         1 I63      -0.087400
     34 C8           7.1650     4.0230    -4.4640 c          1 I63       0.558100
     35 O3           6.8370     3.1550    -3.6810 o          1 I63      -0.531100
     36 C9           6.1430     4.9600    -5.0100 c          1 I63       0.530100
     37 O4           6.4370     5.7230    -5.8990 o          1 I63      -0.527100
     38 C10          4.7430     4.9570    -4.4520 c3         1 I63      -0.143000
     39 C13          4.1190     3.5740    -4.6490 c3         1 I63      -0.084100
     40 C14          4.7880     5.2880    -2.9590 c3         1 I63      -0.084100
     41 C11          3.9020     6.0060    -5.1820 c3         1 I63      -0.068400
     42 C12          2.4800     6.0020    -4.6160 c3         1 I63      -0.096100
     43 H2           1.8340    -0.8850    -1.8720 h1         1 I63       0.025200
     44 H3           1.8350     0.8840    -1.8730 h1         1 I63       0.025200
     45 H4           6.1190    -0.0010    -0.9390 ha         1 I63       0.144000
     46 H5           2.7270    -0.0120    -3.5480 ha         1 I63       0.143000
     47 H6           4.2330    -0.0110    -5.4990 ha         1 I63       0.113000
     48 H7           6.6750    -0.0030    -5.1730 ha         1 I63       0.119000
     49 H8           8.2720     0.3470    -1.8430 h1         1 I63       0.076700
     50 H9           8.4220    -1.7400    -4.0470 hc         1 I63       0.064200
     51 H10          8.0540    -2.0960    -2.3530 hc         1 I63       0.064200
     52 H11         10.2270    -1.1300    -1.6780 hc         1 I63       0.049700
     53 H12         10.5950    -0.7750    -3.3710 hc         1 I63       0.049700
     54 H13         10.2060    -3.4120    -0.8550 ha         1 I63       0.137000
     55 H14         11.0680    -5.7040    -1.1390 ha         1 I63       0.138000
     56 H15         10.9820    -7.6550    -1.8910 h1         1 I63       0.038033
     57 H16         12.5960    -7.1070    -1.4170 h1         1 I63       0.038033
     58 H17         12.4140    -8.5110    -2.4780 h1         1 I63       0.038033
     59 H18         12.6910    -3.1220    -6.2690 h1         1 I63       0.038033
     60 H19         11.0430    -3.6100    -6.6860 h1         1 I63       0.038033
     61 H20         12.4230    -4.4140    -7.4470 h1         1 I63       0.038033
     62 H21         11.1080    -2.4570    -4.8510 ha         1 I63       0.144000
     63 H22          9.8040     2.6040    -5.3050 h1         1 I63       0.064700
     64 H23          8.0810     5.9770    -5.7740 h1         1 I63       0.078700
     65 H24          9.2110     4.9130    -6.6340 h1         1 I63       0.078700
     66 H25         10.4710     6.7360    -5.6070 hc         1 I63       0.049700
     67 H26          9.7370     6.3940    -4.0300 hc         1 I63       0.049700
     68 H27         11.4840     4.4740    -5.6110 hc         1 I63       0.041200
     69 H28         12.0090     5.4170    -4.2060 hc         1 I63       0.041200
     70 H29         11.4010     3.1240    -3.5340 hc         1 I63       0.062700
     71 H30         10.2790     4.2990    -2.8260 hc         1 I63       0.062700
     72 H31          3.0390     3.6640    -4.6640 hc         1 I63       0.052700
     73 H32          4.4160     2.9250    -3.8340 hc         1 I63       0.052700
     74 H33          4.4590     3.1550    -5.5880 hc         1 I63       0.052700
     75 H34          5.6720     4.8440    -2.5170 hc         1 I63       0.052700
     76 H35          4.8190     6.3630    -2.8270 hc         1 I63       0.052700
     77 H36          3.9040     4.8910    -2.4740 hc         1 I63       0.052700
     78 H37          3.8700     5.7720    -6.2390 hc         1 I63       0.044200
     79 H38          4.3430     6.9850    -5.0410 hc         1 I63       0.044200
     80 H39          2.0340     6.9790    -4.7540 hc         1 I63       0.038033
     81 H40          2.5120     5.7660    -3.5590 hc         1 I63       0.038033
     82 H41          1.8870     5.2580    -5.1340 hc         1 I63       0.038033
@<TRIPOS>BOND
     1    31    32 1
     2    31    30 1
     3     3     2 1
     4    32    33 1
     5     4     2 1
     6     4     5 1
     7    30    29 1
     8     2     1 1
     9    37    36 2
    10     8     9 ar
    11     8     6 ar
    12     9    10 ar
    13    33    28 1
    14     5     6 1
    15    39    38 1
    16     6     7 ar
    17    29    28 1
    18    29    34 1
    19    36    34 1
    20    36    38 1
    21    10    11 ar
    22    28    26 1
    23    34    35 2
    24    38    40 1
    25    38    41 1
    26     7    11 ar
    27    11    12 1
    28    26    25 1
    29    26    27 2
    30    25    12 1
    31    41    42 1
    32    12    13 1
    33    13    14 1
    34    14    15 1
    35    16    15 ar
    36    16    17 ar
    37    15    24 ar
    38    17    18 ar
    39    24    21 ar
    40    18    21 ar
    41    18    19 1
    42    20    19 1
    43    21    22 1
    44    22    23 1
    45     4    43 1
    46     4    44 1
    47     7    45 1
    48     8    46 1
    49     9    47 1
    50    10    48 1
    51    12    49 1
    52    13    50 1
    53    13    51 1
    54    14    52 1
    55    14    53 1
    56    16    54 1
    57    17    55 1
    58    20    56 1
    59    20    57 1
    60    20    58 1
    61    23    59 1
    62    23    60 1
    63    23    61 1
    64    24    62 1
    65    28    63 1
    66    30    64 1
    67    30    65 1
    68    31    66 1
    69    31    67 1
    70    32    68 1
    71    32    69 1
    72    33    70 1
    73    33    71 1
    74    39    72 1
    75    39    73 1
    76    39    74 1
    77    40    75 1
    78    40    76 1
    79    40    77 1
    80    41    78 1
    81    41    79 1
    82    42    80 1
    83    42    81 1
    84    42    82 1
@<TRIPOS>SUBSTRUCTURE
     1 I63         1 TEMP              0 ****  ****    0 ROOT
