@<TRIPOS>MOLECULE
I63
   82    84     1     0     0
SMALL
bcc


@<TRIPOS>ATOM
      1 O42          0.0000     0.0000     0.0000 o          1 I63      -0.883300
      2 C40          1.3420     0.0000     0.0000 c          1 I63       0.975600
      3 O41          1.9460     0.0000     1.0460 o          1 I63      -0.883300
      4 C39          2.0960    -0.0010    -1.3050 c3         1 I63       0.081400
      5 O38          3.5010    -0.0010    -1.0430 os         1 I63      -0.257900
      6 C26          4.3290    -0.0020    -2.1210 ca         1 I63       0.172100
      7 C25          5.7040    -0.0010    -1.9400 ca         1 I63      -0.129000
      8 C27          3.8000    -0.0080    -3.4040 ca         1 I63      -0.221000
      9 C28          4.6450    -0.0080    -4.4970 ca         1 I63      -0.073000
     10 C29          6.0150    -0.0030    -4.3140 ca         1 I63      -0.154000
     11 C24          6.5450    -0.0020    -3.0370 ca         1 I63      -0.086300
     12 C15          8.0390    -0.0030    -2.8410 c3         1 I63       0.248400
     13 C16          8.5770    -1.4230    -3.0220 c3         1 I63      -0.033400
     14 C17         10.0720    -1.4470    -2.7020 c3         1 I63       0.026900
     15 C18         10.6020    -2.8470    -2.8810 ca         1 I63      -0.088300
     16 C23         10.5890    -3.7300    -1.8170 ca         1 I63      -0.094000
     17 C22         11.0750    -5.0150    -1.9750 ca         1 I63      -0.173000
     18 C21         11.5740    -5.4200    -3.2020 ca         1 I63       0.107100
     19 O34         12.0520    -6.6840    -3.3600 os         1 I63      -0.297900
     20 C35         12.0080    -7.5410    -2.2170 c3         1 I63       0.241700
     21 C20         11.5870    -4.5320    -4.2730 ca         1 I63       0.125100
     22 O36         12.0760    -4.9240    -5.4800 os         1 I63      -0.298900
     23 C37         12.0570    -3.9590    -6.5340 c3         1 I63       0.242700
     24 C19         11.0940    -3.2470    -4.1090 ca         1 I63      -0.176000
     25 O1           8.6550     0.8760    -3.8190 os         1 I63      -0.410900
     26 C1           8.8140     2.1620    -3.4670 c          1 I63       0.699100
     27 O2           8.4510     2.5400    -2.3790 o          1 I63      -0.548000
     28 C2           9.4460     3.1340    -4.4300 c3         1 I63      -0.015300
     29 N7           8.4550     4.1390    -4.8370 n          1 I63      -0.116800
     30 C6           8.8960     5.2720    -5.6610 c3         1 I63      -0.021000
     31 C5          10.0740     5.9600    -4.9640 c3         1 I63      -0.038400
     32 C4          11.1670     4.9270    -4.6790 c3         1 I63      -0.027400
     33 C3          10.6200     3.8430    -3.7470 c3         1 I63      -0.035400
     34 C8           7.1650     4.0230    -4.4640 c          1 I63       0.477100
     35 O3           6.8370     3.1550    -3.6810 o          1 I63      -0.570100
     36 C9           6.1430     4.9600    -5.0100 c          1 I63       0.579100
     37 O4           6.4370     5.7230    -5.8990 o          1 I63      -0.558100
     38 C10          4.7430     4.9570    -4.4520 c3         1 I63      -0.143000
     39 C13          4.1190     3.5740    -4.6490 c3         1 I63      -0.009100
     40 C14          4.7880     5.2880    -2.9590 c3         1 I63      -0.009100
     41 C11          3.9020     6.0060    -5.1820 c3         1 I63      -0.017400
     42 C12          2.4800     6.0020    -4.6160 c3         1 I63      -0.012100
     43 H2           1.8340    -0.8850    -1.8720 h1         1 I63      -0.004800
     44 H3           1.8350     0.8840    -1.8730 h1         1 I63      -0.004800
     45 H4           6.1190    -0.0010    -0.9390 ha         1 I63       0.120000
     46 H5           2.7270    -0.0120    -3.5480 ha         1 I63       0.130000
     47 H6           4.2330    -0.0110    -5.4990 ha         1 I63       0.087000
     48 H7           6.6750    -0.0030    -5.1730 ha         1 I63       0.099000
     49 H8           8.2720     0.3470    -1.8430 h1         1 I63       0.044700
     50 H9           8.4220    -1.7400    -4.0470 hc         1 I63       0.033200
     51 H10          8.0540    -2.0960    -2.3530 hc         1 I63       0.033200
     52 H11         10.2270    -1.1300    -1.6780 hc         1 I63       0.019700
     53 H12         10.5950    -0.7750    -3.3710 hc         1 I63       0.019700
     54 H13         10.2060    -3.4120    -0.8550 ha         1 I63       0.111000
     55 H14         11.0680    -5.7040    -1.1390 ha         1 I63       0.120000
     56 H15         10.9820    -7.6550    -1.8910 h1         1 I63      -0.004967
     57 H16         12.5960    -7.1070    -1.4170 h1         1 I63      -0.004967
     58 H17         12.4140    -8.5110    -2.4780 h1         1 I63      -0.004967
     59 H18         12.6910    -3.1220    -6.2690 h1         1 I63      -0.005300
     60 H19         11.0430    -3.6100    -6.6860 h1         1 I63      -0.005300
     61 H20         12.4230    -4.4140    -7.4470 h1         1 I63      -0.005300
     62 H21         11.1080    -2.4570    -4.8510 ha         1 I63       0.127000
     63 H22          9.8040     2.6040    -5.3050 h1         1 I63       0.035700
     64 H23          8.0810     5.9770    -5.7740 h1         1 I63       0.060700
     65 H24          9.2110     4.9130    -6.6340 h1         1 I63       0.060700
     66 H25         10.4710     6.7360    -5.6070 hc         1 I63       0.021200
     67 H26          9.7370     6.3940    -4.0300 hc         1 I63       0.021200
     68 H27         11.4840     4.4740    -5.6110 hc         1 I63       0.013700
     69 H28         12.0090     5.4170    -4.2060 hc         1 I63       0.013700
     70 H29         11.4010     3.1240    -3.5340 hc         1 I63       0.033700
     71 H30         10.2790     4.2990    -2.8260 hc         1 I63       0.033700
     72 H31          3.0390     3.6640    -4.6640 hc         1 I63       0.023867
     73 H32          4.4160     2.9250    -3.8340 hc         1 I63       0.023867
     74 H33          4.4590     3.1550    -5.5880 hc         1 I63       0.023867
     75 H34          5.6720     4.8440    -2.5170 hc         1 I63       0.023867
     76 H35          4.8190     6.3630    -2.8270 hc         1 I63       0.023867
     77 H36          3.9040     4.8910    -2.4740 hc         1 I63       0.023867
     78 H37          3.8700     5.7720    -6.2390 hc         1 I63       0.017700
     79 H38          4.3430     6.9850    -5.0410 hc         1 I63       0.017700
     80 H39          2.0340     6.9790    -4.7540 hc         1 I63       0.009367
     81 H40          2.5120     5.7660    -3.5590 hc         1 I63       0.009367
     82 H41          1.8870     5.2580    -5.1340 hc         1 I63       0.009367
@<TRIPOS>BOND
     1     1     2 1   
     2     2     3 1   
     3     2     4 1   
     4     4     5 1   
     5     4    43 1   
     6     4    44 1   
     7     5     6 1   
     8     6     7 ar  
     9     6     8 ar  
    10     7    11 ar  
    11     7    45 1   
    12     8     9 ar  
    13     8    46 1   
    14     9    10 ar  
    15     9    47 1   
    16    10    11 ar  
    17    10    48 1   
    18    11    12 1   
    19    12    13 1   
    20    12    25 1   
    21    12    49 1   
    22    13    14 1   
    23    13    50 1   
    24    13    51 1   
    25    14    15 1   
    26    14    52 1   
    27    14    53 1   
    28    15    16 ar  
    29    15    24 ar  
    30    16    17 ar  
    31    16    54 1   
    32    17    18 ar  
    33    17    55 1   
    34    18    19 1   
    35    18    21 ar  
    36    19    20 1   
    37    20    56 1   
    38    20    57 1   
    39    20    58 1   
    40    21    22 1   
    41    21    24 ar  
    42    22    23 1   
    43    23    59 1   
    44    23    60 1   
    45    23    61 1   
    46    24    62 1   
    47    25    26 1   
    48    26    27 2   
    49    26    28 1   
    50    28    29 1   
    51    28    33 1   
    52    28    63 1   
    53    29    30 1   
    54    29    34 1   
    55    30    31 1   
    56    30    64 1   
    57    30    65 1   
    58    31    32 1   
    59    31    66 1   
    60    31    67 1   
    61    32    33 1   
    62    32    68 1   
    63    32    69 1   
    64    33    70 1   
    65    33    71 1   
    66    34    35 2   
    67    34    36 1   
    68    36    37 2   
    69    36    38 1   
    70    38    39 1   
    71    38    40 1   
    72    38    41 1   
    73    39    72 1   
    74    39    73 1   
    75    39    74 1   
    76    40    75 1   
    77    40    76 1   
    78    40    77 1   
    79    41    42 1   
    80    41    78 1   
    81    41    79 1   
    82    42    80 1   
    83    42    81 1   
    84    42    82 1   
@<TRIPOS>SUBSTRUCTURE
     1 I63         1 TEMP              0 ****  ****    0 ROOT
