@<TRIPOS>MOLECULE
molecule
   27    28     1     0     0
SMALL
bcc


@<TRIPOS>ATOM
      1 O1           0.0000     0.0000     0.0000 oh         1 I6G      -0.497100
      2 C4           1.3590     0.0000     0.0000 ca         1 I6G       0.036800
      3 C3           2.0450     0.0000     1.1800 ca         1 I6G      -0.120000
      4 C2           3.4380    -0.0000     1.2000 ca         1 I6G      -0.225000
      5 C5           2.0680    -0.0060    -1.2190 ca         1 I6G       0.313300
      6 C10          3.4850    -0.0070    -1.1990 ca         1 I6G       0.292300
      7 C1           4.1570    -0.0010     0.0400 ca         1 I6G       0.107800
      8 O            5.5160    -0.0010     0.0800 os         1 I6G      -0.299900
      9 C            6.1280     0.0000     1.3710 c3         1 I6G       0.123700
     10 N1           4.1620    -0.0130    -2.3520 nb         1 I6G      -0.618000
     11 C8           3.5070    -0.0200    -3.4910 ca         1 I6G       0.305300
     12 C9           4.2710    -0.0280    -4.7900 c3         1 I6G      -0.138400
     13 C6           2.1110    -0.0190    -3.5110 ca         1 I6G       0.323300
     14 N            1.4240    -0.0130    -2.3920 nb         1 I6G      -0.631000
     15 C7           1.3850    -0.0270    -4.8310 c3         1 I6G      -0.141400
     16 H1          -0.3140     0.8580     0.2340 ho         1 I6G       0.417000
     17 H3           1.4980     0.0010     2.1160 ha         1 I6G       0.143000
     18 H2           3.9580    -0.0000     2.1500 ha         1 I6G       0.143000
     19 HC1          5.8210     0.8850     1.9150 h1         1 I6G       0.043367
     20 HC2          5.8210    -0.8840     1.9170 h1         1 I6G       0.043367
     21 HC3          7.2050     0.0000     1.2600 h1         1 I6G       0.043367
     22 H91C         4.0130    -0.9150    -5.3550 hc         1 I6G       0.055367
     23 H92C         5.3340    -0.0270    -4.5830 hc         1 I6G       0.055367
     24 H93C         4.0140     0.8540    -5.3650 hc         1 I6G       0.055367
     25 H71C         1.6610    -0.9130    -5.3900 hc         1 I6G       0.056367
     26 H72C         0.3160    -0.0290    -4.6550 hc         1 I6G       0.056367
     27 H73C         1.6560     0.8560    -5.3980 hc         1 I6G       0.056367
@<TRIPOS>BOND
     1     1     2 1
     2     2     3 ar
     3     2     5 ar
     4     3     4 ar
     5     4     7 ar
     6     5     6 ar
     7     5    14 ar
     8     6     7 ar
     9     6    10 ar
    10     7     8 1
    11     8     9 1
    12    10    11 ar
    13    11    12 1
    14    11    13 ar
    15    13    14 ar
    16    13    15 1
    17     1    16 1
    18     3    17 1
    19     4    18 1
    20     9    19 1
    21     9    20 1
    22     9    21 1
    23    12    22 1
    24    12    23 1
    25    12    24 1
    26    15    25 1
    27    15    26 1
    28    15    27 1
@<TRIPOS>SUBSTRUCTURE
     1 I6G         1 TEMP              0 ****  ****    0 ROOT
