@<TRIPOS>MOLECULE
I6G
   27    28     1     0     0
SMALL
bcc


@<TRIPOS>ATOM
      1 O1         -0.0320    0.1170    0.1730 oh        1 I6G     -0.497100
      2 C4          1.3390    0.0790    0.0890 ca        1 I6G      0.064800
      3 C3          2.0240    0.0670    1.2930 ca        1 I6G     -0.131000
      4 C2          3.4270    0.0290    1.3140 ca        1 I6G     -0.182000
      5 C5          2.0530    0.0530   -1.1550 ca        1 I6G      0.253300
      6 C10         3.4910    0.0140   -1.1360 ca        1 I6G      0.303300
      7 C1          4.1580    0.0030    0.1400 ca        1 I6G      0.066800
      8 O           5.5370   -0.0340    0.0930 os        1 I6G     -0.298900
      9 C           6.2080   -0.0450    1.3480 c3        1 I6G      0.108700
     10 N1          4.2060   -0.0120   -2.3200 nb        1 I6G     -0.600000
     11 C8          3.5260    0.0010   -3.4580 ca        1 I6G      0.309300
     12 C9          4.2450   -0.0260   -4.7660 c3        1 I6G     -0.149400
     13 C6          2.0610    0.0400   -3.4770 ca        1 I6G      0.326300
     14 N           1.3610    0.0650   -2.3520 nb        1 I6G     -0.656000
     15 C7          1.3710    0.0510   -4.8000 c3        1 I6G     -0.151400
     16 H1         -0.4060    0.1220   -0.7210 ho        1 I6G      0.442000
     17 H3          1.4610    0.0880    2.2380 ha        1 I6G      0.156000
     18 H2          3.9290    0.0210    2.2930 ha        1 I6G      0.145000
     19 HC1         5.9330   -0.9530    1.9380 h1        1 I6G      0.045367
     20 HC2         7.2900   -0.0760    1.0580 h1        1 I6G      0.045367
     21 HC3         5.9820    0.8830    1.9270 h1        1 I6G      0.045367
     22 H91C        5.3550   -0.0620   -4.6380 hc        1 I6G      0.058700
     23 H92C        3.9830    0.8920   -5.3500 hc        1 I6G      0.058700
     24 H93C        3.9230   -0.9260   -5.3470 hc        1 I6G      0.058700
     25 H71C        0.2590    0.0880   -4.6990 hc        1 I6G      0.059033
     26 H72C        1.6470   -0.8730   -5.3670 hc        1 I6G      0.059033
     27 H73C        1.7070    0.9440   -5.3840 hc        1 I6G      0.059033
@<TRIPOS>BOND
     1    1    2 1   
     2    1   16 1   
     3    2    3 ar  
     4    2    5 ar  
     5    3    4 ar  
     6    3   17 1   
     7    4    7 ar  
     8    4   18 1   
     9    5    6 ar  
    10    5   14 ar  
    11    6    7 ar  
    12    6   10 ar  
    13    7    8 1   
    14    8    9 1   
    15    9   19 1   
    16    9   20 1   
    17    9   21 1   
    18   10   11 ar  
    19   11   12 1   
    20   11   13 ar  
    21   12   22 1   
    22   12   23 1   
    23   12   24 1   
    24   13   14 ar  
    25   13   15 1   
    26   15   25 1   
    27   15   26 1   
    28   15   27 1   
@<TRIPOS>SUBSTRUCTURE
     1 I6G         1 TEMP              0 ****  ****    0 ROOT
