@<TRIPOS>MOLECULE
I6X
   62    66     1     0     0
SMALL
bcc


@<TRIPOS>ATOM
      1 C1           0.0000     0.0000     0.0000 c3         1 I6X      -0.049100
      2 C2           1.5300     0.0000     0.0000 c3         1 I6X      -0.010000
      3 N3           2.0180     0.0000     1.3820 n          1 I6X       0.124000
      4 C4           2.2400    -1.1800     2.0150 cc         1 I6X      -0.111400
      5 C5           2.6910    -1.2050     3.2910 cd         1 I6X      -0.221200
      6 C6           2.9320    -0.0040     3.9720 cd         1 I6X      -0.066000
      7 C7           2.7080     1.1810     3.3340 cc         1 I6X      -0.194400
      8 C8           2.2450     1.1710     2.0070 c          1 I6X       0.584700
      9 O9           2.0450     2.2230     1.4230 o          1 I6X      -0.659500
     10 C10          2.9580     2.4870     4.0440 c3         1 I6X       0.062100
     11 C11          2.9320    -2.5240     3.9790 c3         1 I6X       0.300000
     12 C12          2.0660    -2.6350     5.2090 ca         1 I6X      -0.052300
     13 C13          1.9620    -1.9070     6.3690 ca         1 I6X      -0.085000
     14 C14          1.0410    -2.2750     7.3370 ca         1 I6X       0.011000
     15 C15          0.2240    -3.3720     7.1380 ca         1 I6X      -0.099000
     16 C16          0.3210    -4.1130     5.9740 ca         1 I6X       0.145900
     17 C17          1.2470    -3.7470     4.9950 ca         1 I6X      -0.270900
     18 C18          1.5880    -4.3150     3.6760 ce         1 I6X       0.230800
     19 N19          2.5320    -3.6320     3.1040 n2         1 I6X      -0.373900
     20 N20          0.9850    -5.4250     3.1250 nz         1 I6X       0.172400
     21 F21         -0.4780    -5.1860     5.7840 f          1 I6X      -0.126900
     22 C22          4.3860    -2.6550     4.3550 ca         1 I6X      -0.152300
     23 C23          4.8210    -2.2170     5.5930 ca         1 I6X      -0.146000
     24 C24          6.1540    -2.3330     5.9440 ca         1 I6X      -0.050000
     25 C25          7.0570    -2.8890     5.0600 ca         1 I6X      -0.082000
     26 C26          6.6240    -3.3320     3.8120 cp         1 I6X       0.023000
     27 C27          5.2790    -3.2170     3.4650 ca         1 I6X      -0.086000
     28 C28          7.5900    -3.9300     2.8570 cp         1 I6X      -0.190300
     29 C29          8.9370    -4.0530     3.1980 ca         1 I6X      -0.060000
     30 C30          9.8060    -4.6230     2.2630 ca         1 I6X       0.001700
     31 C31          9.2940    -5.0450     1.0340 ca         1 I6X       0.419200
     32 N32          8.0150    -4.9090     0.7530 nb         1 I6X      -0.587000
     33 C33          7.1630    -4.3820     1.6080 ca         1 I6X       0.396200
     34 C34         11.1980    -4.7740     2.5610 cg         1 I6X      -0.170000
     35 C35         12.3420    -4.9090     2.7890 c1         1 I6X      -0.105100
     36 C36         13.8590    -5.4100     2.8100 c3         1 I6X       0.162000
     37 H11C        -0.5340     0.2870    -0.8980 hc         1 I6X       0.026367
     38 H12C        -0.0440     0.8270     0.6990 hc         1 I6X       0.026367
     39 H13C        -0.2150    -0.6510     0.8390 hc         1 I6X       0.026367
     40 H21C         1.9910     0.8690    -0.4530 h1         1 I6X       0.056700
     41 H22C         1.6520    -0.9320    -0.5380 h1         1 I6X       0.056700
     42 H4           1.7820    -2.0340     1.5300 h4         1 I6X       0.119000
     43 H6           3.3790    -0.2370     4.9310 ha         1 I6X       0.123000
     44 H101         1.9690     2.6820     4.4410 hc         1 I6X       0.041033
     45 H102         3.3050     3.0800     3.2070 hc         1 I6X       0.041033
     46 H103         3.8720     2.1210     4.4970 hc         1 I6X       0.041033
     47 H13          2.6480    -1.0710     6.3080 ha         1 I6X       0.147000
     48 H14          1.0130    -1.6220     8.2010 ha         1 I6X       0.131000
     49 H15         -0.4700    -3.6470     7.9230 ha         1 I6X       0.144000
     50 H201         1.1830    -5.9970     3.9220 hn         1 I6X       0.229467
     51 H202         1.3680    -5.8950     2.3290 hn         1 I6X       0.229467
     52 H23          4.0370    -1.4830     5.7300 ha         1 I6X       0.136000
     53 H27          4.7550    -3.6940     2.6460 ha         1 I6X       0.119000
     54 H24          6.5610    -1.6840     6.7100 ha         1 I6X       0.118000
     55 H25          7.9870    -3.2180     5.5090 ha         1 I6X       0.128000
     56 H29          9.0160    -3.9620     4.2750 ha         1 I6X       0.128000
     57 H33          6.1690    -4.1350     1.2570 h4         1 I6X      -0.023900
     58 H31          9.8440    -5.3460     0.1510 h4         1 I6X      -0.001900
     59 H361        14.3410    -4.6360     2.2250 hc         1 I6X       0.014367
     60 H362        14.1770    -6.3810     2.4500 hc         1 I6X       0.014367
     61 H363        13.9930    -5.2560     3.8740 hc         1 I6X       0.014367
     62 H203         0.0060    -5.5110     3.3130 hn         1 I6X       0.229467
@<TRIPOS>BOND
     1     1     2 1   
     2     1    37 1   
     3     1    38 1   
     4     1    39 1   
     5     2     3 1   
     6     2    40 1   
     7     2    41 1   
     8     3     4 1   
     9     3     8 1   
    10     4     5 2   
    11     4    42 1   
    12     5     6 1   
    13     5    11 1   
    14     6     7 2   
    15     6    43 1   
    16     7     8 1   
    17     7    10 1   
    18     8     9 2   
    19    10    44 1   
    20    10    45 1   
    21    10    46 1   
    22    11    12 1   
    23    11    19 1   
    24    11    22 1   
    25    12    13 ar  
    26    12    17 ar  
    27    13    14 ar  
    28    13    47 1   
    29    14    15 ar  
    30    14    48 1   
    31    15    16 ar  
    32    15    49 1   
    33    16    17 ar  
    34    16    21 1   
    35    17    18 1   
    36    18    19 2   
    37    18    20 1   
    38    20    50 1   
    39    20    51 1   
    40    20    62 1   
    41    22    23 ar  
    42    22    27 ar  
    43    23    24 ar  
    44    23    52 1   
    45    24    25 ar  
    46    24    54 1   
    47    25    26 ar  
    48    25    55 1   
    49    26    27 ar  
    50    26    28 1   
    51    27    53 1   
    52    28    29 ar  
    53    28    33 ar  
    54    29    30 ar  
    55    29    56 1   
    56    30    31 ar  
    57    30    34 1   
    58    31    32 ar  
    59    31    58 1   
    60    32    33 ar  
    61    33    57 1   
    62    34    35 3   
    63    35    36 1   
    64    36    59 1   
    65    36    60 1   
    66    36    61 1   
@<TRIPOS>SUBSTRUCTURE
     1 I6X         1 TEMP              0 ****  ****    0 ROOT
