@<TRIPOS>MOLECULE
molecule
   59    62     1     0     0
SMALL
bcc


@<TRIPOS>ATOM
      1 O1           0.0000     0.0000     0.0000 oh         1 I73      -0.605800
      2 C42          1.4290     0.0000     0.0000 c3         1 I73       0.156100
      3 C43          1.9400     0.0000     1.4430 c3         1 I73       0.132800
      4 N44          3.4080     0.0210     1.4430 n7         1 I73      -0.819200
      5 C45          3.9230     1.2370     0.8000 c3         1 I73       0.154800
      6 C46          3.4710     1.2740    -0.6610 c3         1 I73      -0.076400
      7 C41          1.9410     1.2520    -0.7170 c3         1 I73      -0.089700
      8 C40          1.4830     1.2270    -2.1780 c3         1 I73       0.244800
      9 N18          1.8760     2.4760    -2.8340 nu         1 I73      -0.907900
     10 C5           1.5680     2.6840    -4.1690 cc         1 I73       0.766200
     11 C4           1.9510     3.8790    -4.7970 cc         1 I73      -0.472300
     12 C3           1.6470     4.0690    -6.1130 cd         1 I73       0.354300
     13 N2           0.9720     3.0850    -6.7910 na         1 I73      -0.019800
     14 N1           0.5270     2.9840    -8.1130 nc         1 I73      -0.609100
     15 C9          -0.0740     1.8280    -8.2710 cd         1 I73       0.436500
     16 C8          -0.0440     1.1360    -7.0680 cd         1 I73      -0.356800
     17 C26         -0.6220    -0.2320    -6.8140 c3         1 I73       0.018500
     18 C28         -2.1260    -0.2090    -7.0860 c3         1 I73      -0.085100
     19 C27          0.0490    -1.2490    -7.7400 c3         1 I73      -0.085100
     20 C7           0.6150     1.9320    -6.1420 cc         1 I73       0.487500
     21 N6           0.9190     1.7530    -4.8480 nc         1 I73      -0.809000
     22 N10          2.0110     5.2340    -6.7540 nu         1 I73      -0.798600
     23 C11          2.7310     6.2790    -6.0210 c3         1 I73       0.289100
     24 C12          3.0080     7.4390    -6.9430 ca         1 I73      -0.123300
     25 C17          2.0930     8.4700    -7.0520 ca         1 I73      -0.107000
     26 C16          2.3470     9.5330    -7.8970 ca         1 I73      -0.130000
     27 C15          3.5170     9.5670    -8.6340 ca         1 I73      -0.114000
     28 C14          4.4320     8.5360    -8.5250 ca         1 I73      -0.130000
     29 C13          4.1810     7.4750    -7.6740 ca         1 I73      -0.107000
     30 H1          -0.3140    -0.8890     0.0200 ho         1 I73       0.406000
     31 H2           1.7950    -0.8820    -0.5110 h1         1 I73       0.050700
     32 H3           1.5930    -0.8940     1.9480 h1         1 I73       0.040200
     33 H4           1.5680     0.8780     1.9570 h1         1 I73       0.040200
     34 H5           3.7430    -0.0260     2.3850 hn         1 I73       0.358800
     35 H7           3.5370     2.1080     1.3180 h1         1 I73       0.033700
     36 H8           5.0050     1.2360     0.8420 h1         1 I73       0.033700
     37 H9           3.8360     2.1800    -1.1280 hc         1 I73       0.054200
     38 H10          3.8630     0.4080    -1.1810 hc         1 I73       0.054200
     39 H11          1.5500     2.1340    -0.2260 hc         1 I73       0.063700
     40 H12          1.9470     0.3900    -2.6870 h1         1 I73       0.062700
     41 H13          0.4060     1.1210    -2.2170 h1         1 I73       0.062700
     42 H14          2.3330     3.1950    -2.3090 hn         1 I73       0.443800
     43 H15          2.3420     4.7000    -4.2080 ha         1 I73       0.148000
     44 H16         -0.5220     1.4720    -9.1910 h4         1 I73       0.056800
     45 H17         -0.4450    -0.5130    -5.7820 hc         1 I73       0.065700
     46 H18         -2.5720    -1.1300    -6.7300 hc         1 I73       0.030700
     47 H19         -2.2990    -0.1120    -8.1510 hc         1 I73       0.030700
     48 H20         -2.5740     0.6310    -6.5690 hc         1 I73       0.030700
     49 H21         -0.2260    -2.2510    -7.4350 hc         1 I73       0.030700
     50 H22         -0.2760    -1.0790    -8.7590 hc         1 I73       0.030700
     51 H23          1.1250    -1.1360    -7.6800 hc         1 I73       0.030700
     52 H24          1.7930     5.3620    -7.7230 hn         1 I73       0.469800
     53 H25          2.1270     6.6170    -5.1880 h1         1 I73       0.051200
     54 H26          3.6670     5.8810    -5.6500 h1         1 I73       0.051200
     55 H27          1.1770     8.4440    -6.4740 ha         1 I73       0.136000
     56 H28          1.6300    10.3410    -7.9820 ha         1 I73       0.135000
     57 H29          3.7150    10.3990    -9.2990 ha         1 I73       0.133000
     58 H30          5.3500     8.5640    -9.1000 ha         1 I73       0.135000
     59 H31          4.8980     6.6680    -7.5880 ha         1 I73       0.136000
@<TRIPOS>BOND
     1    28    27 ar
     2    28    29 ar
     3    27    26 ar
     4    29    24 ar
     5    26    25 ar
     6    24    25 ar
     7    24    23 1
     8    22    23 1
     9    22    12 1
    10    14    15 2
    11    14    13 1
    12    15    16 1
    13    12    13 1
    14    12    11 2
    15    13    20 1
    16    16    20 2
    17    16    17 1
    18    19    17 1
    19    11    10 1
    20    20    21 1
    21    10    21 2
    22    10     9 1
    23    17    18 1
    24     9     8 1
    25     8     7 1
    26     7     6 1
    27     7     2 1
    28     6     5 1
    29     5     4 1
    30     2     3 1
    31     2     1 1
    32     3     4 1
    33     1    30 1
    34     2    31 1
    35     3    32 1
    36     3    33 1
    37     4    34 1
    38     5    35 1
    39     5    36 1
    40     6    37 1
    41     6    38 1
    42     7    39 1
    43     8    40 1
    44     8    41 1
    45     9    42 1
    46    11    43 1
    47    15    44 1
    48    17    45 1
    49    18    46 1
    50    18    47 1
    51    18    48 1
    52    19    49 1
    53    19    50 1
    54    19    51 1
    55    22    52 1
    56    23    53 1
    57    23    54 1
    58    25    55 1
    59    26    56 1
    60    27    57 1
    61    28    58 1
    62    29    59 1
@<TRIPOS>SUBSTRUCTURE
     1 I73         1 TEMP              0 ****  ****    0 ROOT
