@<TRIPOS>MOLECULE
molecule
   59    62     1     0     0
SMALL
bcc


@<TRIPOS>ATOM
      1 O1           0.0000     0.0000     0.0000 oh         1 I74      -0.605800
      2 C42          1.4290     0.0000     0.0000 c3         1 I74       0.156100
      3 C43          1.9400     0.0000     1.4430 c3         1 I74       0.131800
      4 N44          3.4090    -0.0220     1.4430 n7         1 I74      -0.818200
      5 C45          3.9220    -1.2390     0.8010 c3         1 I74       0.154800
      6 C46          3.4700    -1.2760    -0.6610 c3         1 I74      -0.076400
      7 C41          1.9400    -1.2530    -0.7170 c3         1 I74      -0.089700
      8 C40          1.4820    -1.2290    -2.1770 c3         1 I74       0.244800
      9 N18          1.8760    -2.4780    -2.8340 nu         1 I74      -0.906900
     10 C5           1.5680    -2.6870    -4.1670 cc         1 I74       0.767200
     11 C4           1.9400    -3.8880    -4.7920 cc         1 I74      -0.473300
     12 C3           1.6240    -4.0830    -6.1060 cd         1 I74       0.354300
     13 N2           0.9520    -3.0980    -6.7830 na         1 I74      -0.020800
     14 N1           0.4970    -3.0020    -8.1040 nc         1 I74      -0.610100
     15 C9          -0.0990    -1.8430    -8.2630 cd         1 I74       0.437500
     16 C8          -0.0560    -1.1450    -7.0640 cd         1 I74      -0.357800
     17 C26         -0.6260     0.2270    -6.8120 c3         1 I74       0.018500
     18 C28          0.0430     1.2370    -7.7480 c3         1 I74      -0.085100
     19 C27         -2.1330     0.2090    -7.0740 c3         1 I74      -0.085100
     20 C7           0.6060    -1.9400    -6.1380 cc         1 I74       0.488500
     21 N6           0.9190    -1.7570    -4.8470 nc         1 I74      -0.810000
     22 N10          1.9800    -5.2530    -6.7430 nu         1 I74      -0.797600
     23 C11          2.6990    -6.2980    -6.0090 c3         1 I74       0.289100
     24 C12          2.9650    -7.4640    -6.9270 ca         1 I74      -0.123300
     25 C17          4.1290    -7.5060    -7.6700 ca         1 I74      -0.107000
     26 C16          4.3730    -8.5760    -8.5120 ca         1 I74      -0.130000
     27 C15          3.4520    -9.6010    -8.6100 ca         1 I74      -0.114000
     28 C14          2.2880    -9.5580    -7.8670 ca         1 I74      -0.130000
     29 C13          2.0460    -8.4920    -7.0210 ca         1 I74      -0.107000
     30 H1          -0.3140     0.8890     0.0190 ho         1 I74       0.406000
     31 H2           1.7950     0.8820    -0.5110 h1         1 I74       0.050700
     32 H3           1.5670    -0.8780     1.9570 h1         1 I74       0.040200
     33 H4           1.5930     0.8940     1.9470 h1         1 I74       0.040200
     34 H5           3.7430     0.0250     2.3850 hn         1 I74       0.357800
     35 H7           5.0050    -1.2390     0.8430 h1         1 I74       0.033700
     36 H8           3.5360    -2.1090     1.3190 h1         1 I74       0.033700
     37 H9           3.8630    -0.4110    -1.1820 hc         1 I74       0.054200
     38 H10          3.8340    -2.1830    -1.1280 hc         1 I74       0.054200
     39 H11          1.5480    -2.1340    -0.2240 hc         1 I74       0.063700
     40 H12          1.9450    -0.3920    -2.6860 h1         1 I74       0.063200
     41 H13          0.4050    -1.1240    -2.2160 h1         1 I74       0.063200
     42 H14          2.3420    -3.1920    -2.3100 hn         1 I74       0.443800
     43 H15          2.3300    -4.7080    -4.2010 ha         1 I74       0.148000
     44 H16         -0.5510    -1.4900    -9.1820 h4         1 I74       0.056800
     45 H17         -0.4420     0.5110    -5.7830 hc         1 I74       0.065700
     46 H18         -0.2250     2.2420    -7.4470 hc         1 I74       0.030700
     47 H19          1.1190     1.1190    -7.6960 hc         1 I74       0.030700
     48 H20         -0.2900     1.0630    -8.7640 hc         1 I74       0.030700
     49 H21         -2.5810    -0.6270    -6.5510 hc         1 I74       0.030700
     50 H22         -2.5720     1.1340    -6.7200 hc         1 I74       0.030700
     51 H23         -2.3130     0.1080    -8.1380 hc         1 I74       0.030700
     52 H24          1.7470    -5.3880    -7.7060 hn         1 I74       0.468800
     53 H25          3.6400    -5.9020    -5.6470 h1         1 I74       0.051200
     54 H26          2.0990    -6.6280    -5.1700 h1         1 I74       0.051200
     55 H27          4.8510    -6.7020    -7.5930 ha         1 I74       0.136000
     56 H28          5.2860    -8.6090    -9.0950 ha         1 I74       0.135000
     57 H29          3.6410   -10.4380    -9.2720 ha         1 I74       0.133000
     58 H30          1.5670   -10.3640    -7.9430 ha         1 I74       0.135000
     59 H31          1.1330    -8.4590    -6.4380 ha         1 I74       0.136000
@<TRIPOS>BOND
     1    28    27 ar
     2    28    29 ar
     3    27    26 ar
     4    29    24 ar
     5    26    25 ar
     6    24    25 ar
     7    24    23 1
     8    22    23 1
     9    22    12 1
    10    14    15 2
    11    14    13 1
    12    15    16 1
    13    12    13 1
    14    12    11 2
    15    13    20 1
    16    11    10 1
    17    16    20 2
    18    16    17 1
    19    20    21 1
    20    18    17 1
    21    17    19 1
    22    10    21 2
    23    10     9 1
    24     9     8 1
    25     8     7 1
    26     7     6 1
    27     7     2 1
    28     6     5 1
    29     1     2 1
    30     2     3 1
    31     5     4 1
    32     3     4 1
    33     1    30 1
    34     2    31 1
    35     3    32 1
    36     3    33 1
    37     4    34 1
    38     5    35 1
    39     5    36 1
    40     6    37 1
    41     6    38 1
    42     7    39 1
    43     8    40 1
    44     8    41 1
    45     9    42 1
    46    11    43 1
    47    15    44 1
    48    17    45 1
    49    18    46 1
    50    18    47 1
    51    18    48 1
    52    19    49 1
    53    19    50 1
    54    19    51 1
    55    22    52 1
    56    23    53 1
    57    23    54 1
    58    25    55 1
    59    26    56 1
    60    27    57 1
    61    28    58 1
    62    29    59 1
@<TRIPOS>SUBSTRUCTURE
     1 I74         1 TEMP              0 ****  ****    0 ROOT
