@<TRIPOS>MOLECULE
I74
   59    62     1     0     0
SMALL
bcc


@<TRIPOS>ATOM
      1 O1           0.0000     0.0000     0.0000 oh         1 I74      -0.585800
      2 C42          1.4290     0.0000     0.0000 c3         1 I74       0.199100
      3 C43          1.9400     0.0000     1.4430 c3         1 I74       0.113800
      4 N44          3.4090    -0.0220     1.4430 n7         1 I74      -0.575200
      5 C45          3.9220    -1.2390     0.8010 c3         1 I74       0.145800
      6 C46          3.4700    -1.2760    -0.6610 c3         1 I74      -0.026400
      7 C41          1.9400    -1.2530    -0.7170 c3         1 I74      -0.073700
      8 C40          1.4820    -1.2290    -2.1770 c3         1 I74       0.165800
      9 N18          1.8760    -2.4780    -2.8340 nu         1 I74      -0.498900
     10 C5           1.5680    -2.6870    -4.1670 cc         1 I74       0.578200
     11 C4           1.9400    -3.8880    -4.7920 cc         1 I74      -0.455300
     12 C3           1.6240    -4.0830    -6.1060 cd         1 I74       0.039300
     13 N2           0.9520    -3.0980    -6.7830 na         1 I74       0.453200
     14 N1           0.4970    -3.0020    -8.1040 nc         1 I74      -0.776100
     15 C9          -0.0990    -1.8430    -8.2630 cd         1 I74       0.509500
     16 C8          -0.0560    -1.1450    -7.0640 cd         1 I74      -0.386800
     17 C26         -0.6260     0.2270    -6.8120 c3         1 I74       0.060500
     18 C28          0.0430     1.2370    -7.7480 c3         1 I74       0.002900
     19 C27         -2.1330     0.2090    -7.0740 c3         1 I74       0.002900
     20 C7           0.6060    -1.9400    -6.1380 cd         1 I74       0.296500
     21 N6           0.9190    -1.7570    -4.8470 nd         1 I74      -0.704000
     22 N10          1.9800    -5.2530    -6.7430 nu         1 I74      -0.380600
     23 C11          2.6990    -6.2980    -6.0090 c3         1 I74       0.226100
     24 C12          2.9650    -7.4640    -6.9270 ca         1 I74      -0.130300
     25 C17          4.1290    -7.5060    -7.6700 ca         1 I74      -0.079500
     26 C16          4.3730    -8.5760    -8.5120 ca         1 I74      -0.100000
     27 C15          3.4520    -9.6010    -8.6100 ca         1 I74      -0.087000
     28 C14          2.2880    -9.5580    -7.8670 ca         1 I74      -0.100000
     29 C13          2.0460    -8.4920    -7.0210 ca         1 I74      -0.079500
     30 H1          -0.3140     0.8890     0.0190 ho         1 I74       0.393000
     31 H2           1.7950     0.8820    -0.5110 h1         1 I74       0.017700
     32 H3           1.5670    -0.8780     1.9570 h1         1 I74       0.013700
     33 H4           1.5930     0.8940     1.9470 h1         1 I74       0.013700
     34 H5           3.7430     0.0250     2.3850 hn         1 I74       0.253800
     35 H7           5.0050    -1.2390     0.8430 h1         1 I74       0.006200
     36 H8           3.5360    -2.1090     1.3190 h1         1 I74       0.006200
     37 H9           3.8630    -0.4110    -1.1820 hc         1 I74       0.024700
     38 H10          3.8340    -2.1830    -1.1280 hc         1 I74       0.024700
     39 H11          1.5480    -2.1340    -0.2240 hc         1 I74       0.038700
     40 H12          1.9450    -0.3920    -2.6860 h1         1 I74       0.036700
     41 H13          0.4050    -1.1240    -2.2160 h1         1 I74       0.036700
     42 H14          2.3420    -3.1920    -2.3100 hn         1 I74       0.293800
     43 H15          2.3300    -4.7080    -4.2010 ha         1 I74       0.140000
     44 H16         -0.5510    -1.4900    -9.1820 h4         1 I74       0.009800
     45 H17         -0.4420     0.5110    -5.7830 hc         1 I74       0.036700
     46 H18         -0.2250     2.2420    -7.4470 hc         1 I74       0.000200
     47 H19          1.1190     1.1190    -7.6960 hc         1 I74       0.000200
     48 H20         -0.2900     1.0630    -8.7640 hc         1 I74       0.000200
     49 H21         -2.5810    -0.6270    -6.5510 hc         1 I74       0.000200
     50 H22         -2.5720     1.1340    -6.7200 hc         1 I74       0.000200
     51 H23         -2.3130     0.1080    -8.1380 hc         1 I74       0.000200
     52 H24          1.7470    -5.3880    -7.7060 hn         1 I74       0.319800
     53 H25          3.6400    -5.9020    -5.6470 h1         1 I74       0.022200
     54 H26          2.0990    -6.6280    -5.1700 h1         1 I74       0.022200
     55 H27          4.8510    -6.7020    -7.5930 ha         1 I74       0.108000
     56 H28          5.2860    -8.6090    -9.0950 ha         1 I74       0.106000
     57 H29          3.6410   -10.4380    -9.2720 ha         1 I74       0.105000
     58 H30          1.5670   -10.3640    -7.9430 ha         1 I74       0.106000
     59 H31          1.1330    -8.4590    -6.4380 ha         1 I74       0.108000
@<TRIPOS>BOND
     1     1     2 1   
     2     1    30 1   
     3     2     3 1   
     4     2     7 1   
     5     2    31 1   
     6     3     4 1   
     7     3    32 1   
     8     3    33 1   
     9     4     5 1   
    10     4    34 1   
    11     5     6 1   
    12     5    35 1   
    13     5    36 1   
    14     6     7 1   
    15     6    37 1   
    16     6    38 1   
    17     7     8 1   
    18     7    39 1   
    19     8     9 1   
    20     8    40 1   
    21     8    41 1   
    22     9    10 1   
    23     9    42 1   
    24    10    11 1   
    25    10    21 2   
    26    11    12 2   
    27    11    43 1   
    28    12    13 1   
    29    12    22 1   
    30    13    14 1   
    31    13    20 1   
    32    14    15 2   
    33    15    16 1   
    34    15    44 1   
    35    16    17 1   
    36    16    20 2   
    37    17    18 1   
    38    17    19 1   
    39    17    45 1   
    40    18    46 1   
    41    18    47 1   
    42    18    48 1   
    43    19    49 1   
    44    19    50 1   
    45    19    51 1   
    46    20    21 1   
    47    22    23 1   
    48    22    52 1   
    49    23    24 1   
    50    23    53 1   
    51    23    54 1   
    52    24    25 ar  
    53    24    29 ar  
    54    25    26 ar  
    55    25    55 1   
    56    26    27 ar  
    57    26    56 1   
    58    27    28 ar  
    59    27    57 1   
    60    28    29 ar  
    61    28    58 1   
    62    29    59 1   
@<TRIPOS>SUBSTRUCTURE
     1 I74         1 TEMP              0 ****  ****    0 ROOT
