@<TRIPOS>MOLECULE
I75
   22    22     1     0     0
SMALL
bcc


@<TRIPOS>ATOM
      1 CAA         0.7500    0.0940   -0.7880 c3        1 I75      0.113700
      2 CAB         1.9080   -0.0100    6.2770 c3        1 I75     -0.198100
      3 OAC        -0.1010   -0.5550    5.1140 o         1 I75     -0.536100
      4 CAE         3.7000    0.5440    2.4060 ca        1 I75     -0.217000
      5 CAF         3.0800    0.4110    3.6440 ca        1 I75     -0.065000
      6 CAG         1.0960   -0.4720    2.5760 ca        1 I75     -0.054000
      7 OAH         1.0370   -0.8660    0.2290 os        1 I75     -0.325900
      8 CAJ         3.0230    0.1580    1.2390 ca        1 I75      0.124100
      9 CAK         1.7800   -0.0960    3.7400 ca        1 I75     -0.197600
     10 CAL         1.7100   -0.3560    1.3250 ca        1 I75      0.061100
     11 HAA         1.6960    0.5060   -1.2170 h1        1 I75      0.045700
     12 HAAA        0.1140    0.9160   -0.3800 h1        1 I75      0.045700
     13 HAAB        0.1910   -0.4990   -1.5540 h1        1 I75      0.045700
     14 HAB         2.8180   -0.6580    6.2680 hc        1 I75      0.064367
     15 HABA        2.2240    1.0600    6.3240 hc        1 I75      0.064367
     16 HABB        1.3050   -0.2470    7.1870 hc        1 I75      0.064367
     17 HOAD        4.4870    0.6060    0.0970 ho        1 I75      0.423000
     18 HAE         3.6280    0.7150    4.5500 ha        1 I75      0.138000
     19 HAF         4.7210    0.9440    2.3380 ha        1 I75      0.138000
     20 HAG         0.0700   -0.8740    2.6450 ha        1 I75      0.174000
     21 OAD         3.5830    0.2740   -0.0090 oh        1 I75     -0.488100
     22 CAI         1.0960   -0.2450    5.0420 c         1 I75      0.579700
@<TRIPOS>BOND
     1    1    7 1   
     2    1   11 1   
     3    1   12 1   
     4    1   13 1   
     5    2   14 1   
     6    2   15 1   
     7    2   16 1   
     8    2   22 1   
     9    3   22 2   
    10    4    5 ar  
    11    4    8 ar  
    12    4   19 1   
    13    5    9 ar  
    14    5   18 1   
    15    6    9 ar  
    16    6   10 ar  
    17    6   20 1   
    18    7   10 1   
    19    8   10 ar  
    20    8   21 1   
    21    9   22 1   
    22   17   21 1   
@<TRIPOS>SUBSTRUCTURE
     1 I75         1 TEMP              0 ****  ****    0 ROOT
