@<TRIPOS>MOLECULE
molecule
   22    22     1     0     0
SMALL
bcc


@<TRIPOS>ATOM
      1 CAA          0.0000     0.0000     0.0000 c3         1 I75       0.123700
      2 CAB          1.8340     0.0100     6.1890 c3         1 I75      -0.191100
      3 OAC         -0.0690     0.0080     4.7930 o          1 I75      -0.529100
      4 CAE          4.0760    -0.0080     2.5180 ca         1 I75      -0.147000
      5 CAF          3.3350     0.0000     3.6780 ca         1 I75      -0.114000
      6 CAG          1.2960     0.0040     2.3690 ca         1 I75      -0.152000
      7 OAH          1.4290     0.0000     0.0000 os         1 I75      -0.313900
      8 CAJ          3.4400    -0.0040     1.2830 ca         1 I75       0.107100
      9 CAK          1.9350     0.0050     3.6140 ca         1 I75      -0.154600
     10 CAL          2.0470     0.0010     1.2110 ca         1 I75       0.111100
     11 HAA         -0.3610     0.8860     0.5080 h1         1 I75       0.044700
     12 HAAA        -0.3610    -0.0030    -1.0210 h1         1 I75       0.044700
     13 HAAB        -0.3610    -0.8830     0.5140 h1         1 I75       0.044700
     14 HAB          1.0920     0.0150     6.9780 hc         1 I75       0.062367
     15 HABA         2.4620    -0.8670     6.2880 hc         1 I75       0.062367
     16 HABB         2.4460     0.9010     6.2630 hc         1 I75       0.062367
     17 HOAD         4.5590     0.8460     0.0140 ho         1 I75       0.420000
     18 HAE          5.1580    -0.0120     2.5680 ha         1 I75       0.146000
     19 HAF          3.8330    -0.0010     4.6400 ha         1 I75       0.137000
     20 HAG          0.2140     0.0080     2.3150 ha         1 I75       0.162000
     21 OAD          4.1760    -0.0060     0.1420 oh         1 I75      -0.503100
     22 CAI          1.1420     0.0080     4.8500 c          1 I75       0.576700
@<TRIPOS>BOND
     1     1     7 1
     2     1    11 1
     3     1    12 1
     4     1    13 1
     5     2    22 1
     6     2    14 1
     7     2    15 1
     8     2    16 1
     9    22     3 2
    10     8    21 1
    11    21    17 1
    12     5     4 ar
    13     8     4 ar
    14     4    18 1
    15     9     5 ar
    16     5    19 1
    17     6     9 ar
    18     6    10 ar
    19     6    20 1
    20     7    10 1
    21    22     9 1
    22    10     8 ar
@<TRIPOS>SUBSTRUCTURE
     1 I75         1 TEMP              0 ****  ****    0 ROOT
