@<TRIPOS>MOLECULE
molecule
   54    58     1     0     0
SMALL
bcc


@<TRIPOS>ATOM
      1 CAA          0.0000     0.0000     0.0000 c3         1 I76      -0.107100
      2 CBE          1.5300     0.0000     0.0000 c3         1 I76       0.085000
      3 CAB          2.0390     0.0000     1.4430 c3         1 I76      -0.107100
      4 NBF          2.0180    -1.1970    -0.6900 na         1 I76      -0.024800
      5 NAS          1.7440    -2.5160    -0.3130 nc         1 I76      -0.492100
      6 C4           2.8050    -1.1970    -1.8030 ca         1 I76       0.532800
      7 N3           3.3460    -0.2460    -2.5650 nb         1 I76      -0.806000
      8 C2           4.0840    -0.5590    -3.6070 ca         1 I76       0.752900
      9 N1           4.3300    -1.8090    -3.9570 nb         1 I76      -0.837000
     10 C6           3.8360    -2.8280    -3.2590 ca         1 I76       0.791200
     11 NAC          4.0970    -4.1330    -3.6300 nv         1 I76      -1.016500
     12 C5           3.0410    -2.5440    -2.1370 ca         1 I76      -0.533500
     13 CAZ          2.3310    -3.3470    -1.1410 cd         1 I76       0.442500
     14 CAY          2.2830    -4.8270    -1.0810 ca         1 I76      -0.107900
     15 CAO          3.4420    -5.5590    -1.2590 ca         1 I76      -0.094000
     16 CAI          1.0590    -5.4740    -0.8370 ca         1 I76      -0.092000
     17 CAK          0.9890    -6.8280    -0.7750 ca         1 I76      -0.127000
     18 CBA          2.1500    -7.6030    -0.9580 ca         1 I76       0.006000
     19 CAN          2.1000    -9.0050    -0.8990 ca         1 I76      -0.162000
     20 CBB          3.3910    -6.9600    -1.2000 ca         1 I76      -0.077000
     21 CAJ          4.5500    -7.7360    -1.3770 ca         1 I76      -0.076000
     22 CAH          4.4740    -9.0920    -1.3140 ca         1 I76      -0.205000
     23 CAW          3.2530    -9.7330    -1.0820 ca         1 I76       0.144100
     24 OAT          3.2070   -11.0900    -1.0240 os         1 I76      -0.322900
     25 CAP          4.4370   -11.7900    -1.2210 c3         1 I76       0.187700
     26 CAV          4.1920   -13.2740    -1.1230 ca         1 I76      -0.088300
     27 CAM          4.2870   -13.9100     0.1000 ca         1 I76      -0.097000
     28 CAU          4.0620   -15.2720     0.1900 ca         1 I76       0.024400
     29 ClD          4.1820   -16.0720     1.7260 cl         1 I76      -0.104400
     30 CAF          3.7420   -15.9960    -0.9440 ca         1 I76      -0.111000
     31 CAE          3.6470   -15.3580    -2.1670 ca         1 I76      -0.123000
     32 CAG          3.8660   -13.9970    -2.2550 ca         1 I76      -0.103000
     33 H1          -0.3610    -0.8230     0.6050 hc         1 I76       0.048367
     34 H2          -0.3610    -0.1120    -1.0150 hc         1 I76       0.048367
     35 H3          -0.3610     0.9350     0.4100 hc         1 I76       0.048367
     36 H4           1.8910     0.8840    -0.5110 h1         1 I76       0.087700
     37 H5           3.1180    -0.1020     1.4450 hc         1 I76       0.048367
     38 H6           1.7640     0.9310     1.9230 hc         1 I76       0.048367
     39 H7           1.5970    -0.8290     1.9820 hc         1 I76       0.048367
     40 H8           4.5070     0.2400    -4.2040 h5         1 I76       0.060100
     41 H9           3.3950    -4.8370    -3.5110 hn         1 I76       0.447800
     42 H10          4.9780    -4.3700    -4.0400 hn         1 I76       0.447800
     43 H11          4.3990    -5.0530    -1.3120 ha         1 I76       0.148000
     44 H12          0.1620    -4.8840    -0.6950 ha         1 I76       0.145000
     45 H13          0.0380    -7.3130    -0.5860 ha         1 I76       0.140000
     46 H14          1.1590    -9.5100    -0.7190 ha         1 I76       0.151000
     47 H15          5.5030    -7.2540    -1.5580 ha         1 I76       0.135000
     48 H16          5.3700    -9.6850    -1.4560 ha         1 I76       0.135000
     49 H17          4.8330   -11.5530    -2.2010 h1         1 I76       0.043700
     50 H18          5.1490   -11.4910    -0.4620 h1         1 I76       0.043700
     51 H19          4.5300   -13.3410     0.9890 ha         1 I76       0.149000
     52 H20          3.5680   -17.0630    -0.8740 ha         1 I76       0.146000
     53 H21          3.3940   -15.9250    -3.0550 ha         1 I76       0.140000
     54 H22          3.7920   -13.4970    -3.2140 ha         1 I76       0.138000
@<TRIPOS>BOND
     1     3     2 1
     2     2     4 1
     3     2     1 1
     4     7     8 ar
     5     7     6 ar
     6     8     9 ar
     7     4     6 1
     8     4     5 1
     9     6    12 ar
    10    16    17 ar
    11    16    14 ar
    12     9    10 ar
    13     5    13 2
    14    12    10 ar
    15    12    13 1
    16    10    11 1
    17    17    18 ar
    18    13    14 1
    19    14    15 ar
    20    18    19 ar
    21    18    20 ar
    22    19    23 ar
    23    15    20 ar
    24    29    28 1
    25    20    21 ar
    26    27    26 ar
    27    27    28 ar
    28    25    26 1
    29    25    24 1
    30    23    24 1
    31    23    22 ar
    32    26    32 ar
    33    28    30 ar
    34    21    22 ar
    35    32    31 ar
    36    30    31 ar
    37     1    33 1
    38     1    34 1
    39     1    35 1
    40     2    36 1
    41     3    37 1
    42     3    38 1
    43     3    39 1
    44     8    40 1
    45    11    41 1
    46    11    42 1
    47    15    43 1
    48    16    44 1
    49    17    45 1
    50    19    46 1
    51    21    47 1
    52    22    48 1
    53    25    49 1
    54    25    50 1
    55    27    51 1
    56    30    52 1
    57    31    53 1
    58    32    54 1
@<TRIPOS>SUBSTRUCTURE
     1 I76         1 TEMP              0 ****  ****    0 ROOT
