@<TRIPOS>MOLECULE
I76
   54    58     1     0     0
SMALL
bcc


@<TRIPOS>ATOM
      1 CAA          0.0000     0.0000     0.0000 c3         1 I76      -0.011100
      2 CBE          1.5300     0.0000     0.0000 c3         1 I76      -0.032000
      3 CAB          2.0390     0.0000     1.4430 c3         1 I76      -0.011100
      4 NBF          2.0180    -1.1970    -0.6900 na         1 I76       0.381200
      5 NAS          1.7440    -2.5160    -0.3130 nc         1 I76      -0.622100
      6 C4           2.8050    -1.1970    -1.8030 ca         1 I76       0.347800
      7 N3           3.3460    -0.2460    -2.5650 nb         1 I76      -0.696000
      8 C2           4.0840    -0.5590    -3.6070 ca         1 I76       0.708900
      9 N1           4.3300    -1.8090    -3.9570 nb         1 I76      -0.745000
     10 C6           3.8360    -2.8280    -3.2590 ca         1 I76       0.614200
     11 NAC          4.0970    -4.1330    -3.6300 nv         1 I76      -0.544500
     12 C5           3.0410    -2.5440    -2.1370 ca         1 I76      -0.549500
     13 CAZ          2.3310    -3.3470    -1.1410 cd         1 I76       0.481500
     14 CAY          2.2830    -4.8270    -1.0810 ca         1 I76      -0.106900
     15 CAO          3.4420    -5.5590    -1.2590 ca         1 I76      -0.083000
     16 CAI          1.0590    -5.4740    -0.8370 ca         1 I76      -0.066000
     17 CAK          0.9890    -6.8280    -0.7750 ca         1 I76      -0.099000
     18 CBA          2.1500    -7.6030    -0.9580 ca         1 I76       0.009000
     19 CAN          2.1000    -9.0050    -0.8990 ca         1 I76      -0.144000
     20 CBB          3.3910    -6.9600    -1.2000 ca         1 I76      -0.076000
     21 CAJ          4.5500    -7.7360    -1.3770 ca         1 I76      -0.045000
     22 CAH          4.4740    -9.0920    -1.3140 ca         1 I76      -0.193000
     23 CAW          3.2530    -9.7330    -1.0820 ca         1 I76       0.152100
     24 OAT          3.2070   -11.0900    -1.0240 os         1 I76      -0.299900
     25 CAP          4.4370   -11.7900    -1.2210 c3         1 I76       0.261700
     26 CAV          4.1920   -13.2740    -1.1230 ca         1 I76      -0.103300
     27 CAM          4.2870   -13.9100     0.1000 ca         1 I76      -0.074000
     28 CAU          4.0620   -15.2720     0.1900 ca         1 I76      -0.038600
     29 ClD          4.1820   -16.0720     1.7260 cl         1 I76      -0.023400
     30 CAF          3.7420   -15.9960    -0.9440 ca         1 I76      -0.089000
     31 CAE          3.6470   -15.3580    -2.1670 ca         1 I76      -0.094000
     32 CAG          3.8660   -13.9970    -2.2550 ca         1 I76      -0.075000
     33 H1          -0.3610    -0.8230     0.6050 hc         1 I76       0.015367
     34 H2          -0.3610    -0.1120    -1.0150 hc         1 I76       0.015367
     35 H3          -0.3610     0.9350     0.4100 hc         1 I76       0.015367
     36 H4           1.8910     0.8840    -0.5110 h1         1 I76       0.057700
     37 H5           3.1180    -0.1020     1.4450 hc         1 I76       0.015367
     38 H6           1.7640     0.9310     1.9230 hc         1 I76       0.015367
     39 H7           1.5970    -0.8290     1.9820 hc         1 I76       0.015367
     40 H8           4.5070     0.2400    -4.2040 h5         1 I76      -0.005900
     41 H9           3.3950    -4.8370    -3.5110 hn         1 I76       0.283300
     42 H10          4.9780    -4.3700    -4.0400 hn         1 I76       0.283300
     43 H11          4.3990    -5.0530    -1.3120 ha         1 I76       0.119000
     44 H12          0.1620    -4.8840    -0.6950 ha         1 I76       0.115000
     45 H13          0.0380    -7.3130    -0.5860 ha         1 I76       0.111000
     46 H14          1.1590    -9.5100    -0.7190 ha         1 I76       0.124000
     47 H15          5.5030    -7.2540    -1.5580 ha         1 I76       0.105000
     48 H16          5.3700    -9.6850    -1.4560 ha         1 I76       0.119000
     49 H17          4.8330   -11.5530    -2.2010 h1         1 I76       0.005700
     50 H18          5.1490   -11.4910    -0.4620 h1         1 I76       0.005700
     51 H19          4.5300   -13.3410     0.9890 ha         1 I76       0.119000
     52 H20          3.5680   -17.0630    -0.8740 ha         1 I76       0.115000
     53 H21          3.3940   -15.9250    -3.0550 ha         1 I76       0.108000
     54 H22          3.7920   -13.4970    -3.2140 ha         1 I76       0.109000
@<TRIPOS>BOND
     1     1     2 1   
     2     1    33 1   
     3     1    34 1   
     4     1    35 1   
     5     2     3 1   
     6     2     4 1   
     7     2    36 1   
     8     3    37 1   
     9     3    38 1   
    10     3    39 1   
    11     4     5 1   
    12     4     6 1   
    13     5    13 2   
    14     6     7 ar  
    15     6    12 ar  
    16     7     8 ar  
    17     8     9 ar  
    18     8    40 1   
    19     9    10 ar  
    20    10    11 1   
    21    10    12 ar  
    22    11    41 1   
    23    11    42 1   
    24    12    13 1   
    25    13    14 1   
    26    14    15 ar  
    27    14    16 ar  
    28    15    20 ar  
    29    15    43 1   
    30    16    17 ar  
    31    16    44 1   
    32    17    18 ar  
    33    17    45 1   
    34    18    19 ar  
    35    18    20 ar  
    36    19    23 ar  
    37    19    46 1   
    38    20    21 ar  
    39    21    22 ar  
    40    21    47 1   
    41    22    23 ar  
    42    22    48 1   
    43    23    24 1   
    44    24    25 1   
    45    25    26 1   
    46    25    49 1   
    47    25    50 1   
    48    26    27 ar  
    49    26    32 ar  
    50    27    28 ar  
    51    27    51 1   
    52    28    29 1   
    53    28    30 ar  
    54    30    31 ar  
    55    30    52 1   
    56    31    32 ar  
    57    31    53 1   
    58    32    54 1   
@<TRIPOS>SUBSTRUCTURE
     1 I76         1 TEMP              0 ****  ****    0 ROOT
