@<TRIPOS>MOLECULE
molecule
   54    58     1     0     0
SMALL
bcc


@<TRIPOS>ATOM
      1 C1           0.0000     0.0000     0.0000 ca         1 I79      -0.203500
      2 C2           1.3930     0.0000     0.0000 cp         1 I79       0.043000
      3 C3           2.0870     0.0000     1.2080 ca         1 I79      -0.203500
      4 C4           1.3910     0.0010     2.4070 ca         1 I79       0.201600
      5 C5           0.0020     0.0010     2.4050 ca         1 I79      -0.242000
      6 C6          -0.6930     0.0000     1.2020 ca         1 I79       0.201600
      7 N7          -2.0900     0.0010     1.2030 nv         1 I79      -0.961700
      8 N8           2.0860     0.0010     3.6190 nv         1 I79      -0.961700
      9 C9           2.1350    -0.0010    -1.2840 cp         1 I79      -0.046000
     10 C10          1.4320    -0.0020    -2.4940 ca         1 I79      -0.163000
     11 C11          2.1030    -0.0030    -3.6820 ca         1 I79      -0.057000
     12 C12          3.5000    -0.0040    -3.6940 ca         1 I79      -0.065800
     13 C13          4.2170    -0.0020    -2.4820 ca         1 I79      -0.047200
     14 C14          3.5240     0.0040    -1.2790 ca         1 I79      -0.140000
     15 C15          4.5060    -0.0040    -4.7590 cc         1 I79      -0.061400
     16 C16          5.7090    -0.0040    -4.1620 cd         1 I79      -0.124100
     17 N17          5.5570    -0.0030    -2.8040 na         1 I79      -0.084400
     18 C18          4.2400    -0.0060    -6.2420 c3         1 I79      -0.125200
     19 C19          4.0300     1.4090    -6.7160 c          1 I79       0.890600
     20 O20          4.0890     2.3240    -5.9310 o          1 I79      -0.844800
     21 O21          3.7760     1.6520    -8.0120 o          1 I79      -0.844800
     22 C22          6.6540    -0.0000    -1.8320 c3         1 I79       0.120500
     23 C23          7.9670    -0.1420    -2.5600 cd         1 I79      -0.103400
     24 C24          8.7740     1.0050    -2.9470 ca         1 I79      -0.052800
     25 C25          9.9440     0.6180    -3.6060 ca         1 I79      -0.013100
     26 S26         10.0050    -1.1360    -3.7240 ss         1 I79      -0.116500
     27 C27          8.4740    -1.3130    -2.8880 cc         1 I79      -0.007600
     28 C28          7.8170    -2.6360    -2.5900 c3         1 I79      -0.025900
     29 C29         10.8440     1.5900    -4.0530 ca         1 I79      -0.092000
     30 C30         10.5850     2.9240    -3.8470 ca         1 I79      -0.115000
     31 C31          9.4250     3.3180    -3.1920 ca         1 I79       0.030400
     32 C32          8.5280     2.3800    -2.7450 ca         1 I79      -0.070000
     33 Cl33         9.1080     5.0050    -2.9380 cl         1 I79      -0.107400
     34 H1          -0.5420    -0.0000    -0.9380 ha         1 I79       0.136000
     35 H3           3.1710     0.0000     1.2100 ha         1 I79       0.136000
     36 H5          -0.5410     0.0010     3.3430 ha         1 I79       0.122000
     37 HN7         -2.5900    -0.8660     1.2110 hn         1 I79       0.422050
     38 HN7A        -2.5900     0.8680     1.2100 hn         1 I79       0.422050
     39 HN8          3.0870    -0.0090     3.6210 hn         1 I79       0.422050
     40 HN8A         1.5840     0.0070     4.4840 hn         1 I79       0.422050
     41 H10          0.3490    -0.0010    -2.4880 ha         1 I79       0.122000
     42 H11          1.5530    -0.0040    -4.6150 ha         1 I79       0.143000
     43 H14          4.0620     0.1160    -0.3450 ha         1 I79       0.112000
     44 H16          6.6600    -0.0040    -4.6810 h4         1 I79       0.168000
     45 H18          5.0880    -0.4380    -6.7610 hc         1 I79       0.037700
     46 H18A         3.3530    -0.5920    -6.4500 hc         1 I79       0.037700
     47 H22          6.6460     0.9310    -1.2790 h1         1 I79       0.048200
     48 H22A         6.5310    -0.8290    -1.1450 h1         1 I79       0.048200
     49 H28          8.4950    -3.4420    -2.8450 hc         1 I79       0.053700
     50 H28A         7.5740    -2.6890    -1.5350 hc         1 I79       0.053700
     51 H28B         6.9100    -2.7290    -3.1750 hc         1 I79       0.053700
     52 H29         11.7510     1.2900    -4.5640 ha         1 I79       0.134000
     53 H30         11.2880     3.6700    -4.1960 ha         1 I79       0.141000
     54 H32          7.6260     2.6970    -2.2360 ha         1 I79       0.159000
@<TRIPOS>BOND
     1     1     6 ar
     2     1     2 ar
     3     1    34 1
     4     9     2 1
     5     2     3 ar
     6     3     4 ar
     7     3    35 1
     8     5     4 ar
     9     4     8 1
    10     6     5 ar
    11     5    36 1
    12     7     6 1
    13     7    37 1
    14     7    38 1
    15     8    39 1
    16     8    40 1
    17    14     9 ar
    18     9    10 ar
    19    11    10 ar
    20    10    41 1
    21    12    11 ar
    22    11    42 1
    23    13    12 ar
    24    15    12 1
    25    17    13 1
    26    13    14 ar
    27    14    43 1
    28    16    15 2
    29    15    18 1
    30    17    16 1
    31    16    44 1
    32    22    17 1
    33    18    19 1
    34    18    45 1
    35    18    46 1
    36    20    19 1
    37    19    21 1
    38    23    22 1
    39    22    47 1
    40    22    48 1
    41    24    23 1
    42    27    23 2
    43    25    24 ar
    44    32    24 ar
    45    29    25 ar
    46    25    26 1
    47    26    27 1
    48    27    28 1
    49    28    49 1
    50    28    50 1
    51    28    51 1
    52    30    29 ar
    53    29    52 1
    54    30    31 ar
    55    30    53 1
    56    33    31 1
    57    31    32 ar
    58    32    54 1
@<TRIPOS>SUBSTRUCTURE
     1 I79         1 TEMP              0 ****  ****    0 ROOT
