@<TRIPOS>MOLECULE
molecule
   24    24     1     0     0
SMALL
bcc


@<TRIPOS>ATOM
      1 S1           0.0000     0.0000     0.0000 sy         1 I7A       1.246200
      2 O1           1.4210     0.0000     0.0000 o          1 I7A      -0.477800
      3 O2          -0.7760     0.0000     1.1900 o          1 I7A      -0.477800
      4 N1          -0.4670     1.3320    -0.8650 nz         1 I7A      -0.811500
      5 S2          -3.7330    -3.7880    -1.1680 sy         1 I7A       1.254200
      6 O3          -4.3740    -2.9760    -0.1960 o          1 I7A      -0.479300
      7 O4          -3.5310    -5.1860    -1.0030 o          1 I7A      -0.479300
      8 N2          -4.5900    -3.6030    -2.5730 nz         1 I7A      -0.815500
      9 C1          -0.4980    -1.4180    -0.9190 ca         1 I7A      -0.358500
     10 C2          -1.7480    -1.9720    -0.7130 ca         1 I7A       0.085000
     11 C3          -2.1390    -3.0850    -1.4320 ca         1 I7A      -0.349500
     12 C4          -1.2810    -3.6460    -2.3600 ca         1 I7A       0.149400
     13 C5          -0.0280    -3.0930    -2.5670 ca         1 I7A       0.009400
     14 C6           0.3600    -1.9750    -1.8490 ca         1 I7A       0.060000
     15 Cl1         -1.7710    -5.0440    -3.2640 cl         1 I7A       0.009600
     16 Cl2          1.0520    -3.7960    -3.7300 cl         1 I7A       0.044600
     17 HN11        -0.1790     2.1610    -0.3830 hn         1 I7A       0.499133
     18 HN12        -0.0420     1.3080    -1.7700 hn         1 I7A       0.499133
     19 HN21        -4.4400    -2.6820    -2.9360 hn         1 I7A       0.500800
     20 HN22        -4.2830    -4.2800    -3.2430 hn         1 I7A       0.500800
     21 H2          -2.4090    -1.5520     0.0360 ha         1 I7A       0.194000
     22 H6           1.3460    -1.5520    -1.9960 ha         1 I7A       0.200000
     23 H13         -1.4580     1.3090    -1.0040 hn         1 I7A       0.499133
     24 H23         -5.5640    -3.7450    -2.3910 hn         1 I7A       0.500800
@<TRIPOS>BOND
     1     2     1 2
     2     3     1 2
     3     1     4 1
     4     1     9 1
     5     9    14 ar
     6     9    10 ar
     7    14    13 ar
     8    10    11 ar
     9    13    16 1
    10    13    12 ar
    11    11    12 ar
    12    11     5 1
    13    12    15 1
    14     8     5 1
    15     5     7 2
    16     5     6 2
    17     4    17 1
    18     4    18 1
    19     8    19 1
    20     8    20 1
    21    10    21 1
    22    14    22 1
    23    23     4 1
    24    24     8 1
@<TRIPOS>SUBSTRUCTURE
     1 I7A         1 TEMP              0 ****  ****    0 ROOT
