@<TRIPOS>MOLECULE
I7A
   24    24     1     0     0
SMALL
bcc


@<TRIPOS>ATOM
      1 S1           0.0000     0.0000     0.0000 sy         1 I7A       0.957200
      2 O1           1.4210     0.0000     0.0000 o          1 I7A      -0.466300
      3 O2          -0.7760     0.0000     1.1900 o          1 I7A      -0.466300
      4 N1          -0.4670     1.3320    -0.8650 nz         1 I7A      -0.127500
      5 S2          -3.7330    -3.7880    -1.1680 sy         1 I7A       0.958200
      6 O3          -4.3740    -2.9760    -0.1960 o          1 I7A      -0.468300
      7 O4          -3.5310    -5.1860    -1.0030 o          1 I7A      -0.468300
      8 N2          -4.5900    -3.6030    -2.5730 nz         1 I7A      -0.141500
      9 C1          -0.4980    -1.4180    -0.9190 ca         1 I7A      -0.252500
     10 C2          -1.7480    -1.9720    -0.7130 ca         1 I7A       0.138000
     11 C3          -2.1390    -3.0850    -1.4320 ca         1 I7A      -0.238500
     12 C4          -1.2810    -3.6460    -2.3600 ca         1 I7A       0.063400
     13 C5          -0.0280    -3.0930    -2.5670 ca         1 I7A      -0.107600
     14 C6           0.3600    -1.9750    -1.8490 ca         1 I7A       0.108000
     15 Cl1         -1.7710    -5.0440    -3.2640 cl         1 I7A       0.123600
     16 Cl2          1.0520    -3.7960    -3.7300 cl         1 I7A       0.161600
     17 HN11        -0.1790     2.1610    -0.3830 hn         1 I7A       0.317800
     18 HN12        -0.0420     1.3080    -1.7700 hn         1 I7A       0.317800
     19 HN21        -4.4400    -2.6820    -2.9360 hn         1 I7A       0.321133
     20 HN22        -4.2830    -4.2800    -3.2430 hn         1 I7A       0.321133
     21 H2          -2.4090    -1.5520     0.0360 ha         1 I7A       0.158000
     22 H6           1.3460    -1.5520    -1.9960 ha         1 I7A       0.153000
     23 H13         -1.4580     1.3090    -1.0040 hn         1 I7A       0.317800
     24 H23         -5.5640    -3.7450    -2.3910 hn         1 I7A       0.321133
@<TRIPOS>BOND
     1     1     2 2   
     2     1     3 2   
     3     1     4 1   
     4     1     9 1   
     5     4    17 1   
     6     4    18 1   
     7     4    23 1   
     8     5     6 2   
     9     5     7 2   
    10     5     8 1   
    11     5    11 1   
    12     8    19 1   
    13     8    20 1   
    14     8    24 1   
    15     9    10 ar  
    16     9    14 ar  
    17    10    11 ar  
    18    10    21 1   
    19    11    12 ar  
    20    12    13 ar  
    21    12    15 1   
    22    13    14 ar  
    23    13    16 1   
    24    14    22 1   
@<TRIPOS>SUBSTRUCTURE
     1 I7A         1 TEMP              0 ****  ****    0 ROOT
