@<TRIPOS>MOLECULE
molecule
   26    26     1     0     0
SMALL
bcc


@<TRIPOS>ATOM
      1 C2           0.0000     0.0000     0.0000 ca         1 I7B       0.134000
      2 C1           1.3810     0.0000     0.0000 ca         1 I7B      -0.411500
      3 C6           2.0750     0.0000     1.2040 ca         1 I7B       0.348600
      4 C5           1.3760     0.0010     2.4040 ca         1 I7B      -0.161000
      5 C4          -0.0060     0.0010     2.3980 ca         1 I7B       0.169400
      6 C3          -0.6930    -0.0000     1.1960 ca         1 I7B      -0.389500
      7 S1           2.2620    -0.0010    -1.5260 sy         1 I7B       1.270200
      8 N1           3.0870     1.4320    -1.6160 nz         1 I7B      -0.812500
      9 O2           3.2450    -1.0240    -1.4210 o          1 I7B      -0.502800
     10 O1           1.2830     0.0340    -2.5550 o          1 I7B      -0.502800
     11 S2          -2.4550     0.0080     1.1930 sy         1 I7B       1.260200
     12 N2          -2.9530    -1.4250     1.8560 nz         1 I7B      -0.813500
     13 O3          -2.8540     1.0290     2.0950 o          1 I7B      -0.491300
     14 O4          -2.8530    -0.0220    -0.1720 o          1 I7B      -0.491300
     15 N3           3.4720    -0.0010     1.2060 nv         1 I7B      -0.972200
     16 Cl1         -0.8800     0.0010     3.8980 cl         1 I7B      -0.011400
     17 H2          -0.5410     0.0000    -0.9390 ha         1 I7B       0.202000
     18 H5           1.9140    -0.0400     3.3440 ha         1 I7B       0.204000
     19 HN11         3.2320     1.6730    -2.5770 hn         1 I7B       0.502800
     20 HN12         2.5560     2.1520    -1.1680 hn         1 I7B       0.502800
     21 HN21        -2.4550    -2.1810     1.4290 hn         1 I7B       0.501467
     22 HN22        -3.9350    -1.5410     1.7000 hn         1 I7B       0.501467
     23 HN31         3.9710     0.6890     1.7310 hn         1 I7B       0.479300
     24 HN32         3.9720    -0.7150     0.7140 hn         1 I7B       0.479300
     25 H13          3.9880     1.3250    -1.1930 hn         1 I7B       0.502800
     26 H23         -2.7780    -1.4150     2.8410 hn         1 I7B       0.501467
@<TRIPOS>BOND
     1    10     7 2
     2     9     7 2
     3     7     8 1
     4     7     2 1
     5    15     3 1
     6     2     3 ar
     7     2     1 ar
     8     3     4 ar
     9     1     6 ar
    10     4     5 ar
    11     6     5 ar
    12     6    11 1
    13     5    16 1
    14    12    11 1
    15    11    14 2
    16    11    13 2
    17     1    17 1
    18     4    18 1
    19     8    19 1
    20     8    20 1
    21    12    21 1
    22    12    22 1
    23    15    23 1
    24    15    24 1
    25    25     8 1
    26    26    12 1
@<TRIPOS>SUBSTRUCTURE
     1 I7B         1 TEMP              0 ****  ****    0 ROOT
