@<TRIPOS>MOLECULE
I7B
   26    26     1     0     0
SMALL
bcc


@<TRIPOS>ATOM
      1 C2           0.0000     0.0000     0.0000 ca         1 I7B       0.200000
      2 C1           1.3810     0.0000     0.0000 ca         1 I7B      -0.307500
      3 C6           2.0750     0.0000     1.2040 ca         1 I7B       0.215600
      4 C5           1.3760     0.0010     2.4040 ca         1 I7B      -0.148000
      5 C4          -0.0060     0.0010     2.3980 ca         1 I7B       0.095400
      6 C3          -0.6930    -0.0000     1.1960 ca         1 I7B      -0.286500
      7 S1           2.2620    -0.0010    -1.5260 sy         1 I7B       0.969200
      8 N1           3.0870     1.4320    -1.6160 nz         1 I7B      -0.128500
      9 O2           3.2450    -1.0240    -1.4210 o          1 I7B      -0.484800
     10 O1           1.2830     0.0340    -2.5550 o          1 I7B      -0.484800
     11 S2          -2.4550     0.0080     1.1930 sy         1 I7B       0.961200
     12 N2          -2.9530    -1.4250     1.8560 nz         1 I7B      -0.135500
     13 O3          -2.8540     1.0290     2.0950 o          1 I7B      -0.478300
     14 O4          -2.8530    -0.0220    -0.1720 o          1 I7B      -0.478300
     15 N3           3.4720    -0.0010     1.2060 nv         1 I7B      -0.519200
     16 Cl1         -0.8800     0.0010     3.8980 cl         1 I7B       0.103600
     17 H2          -0.5410     0.0000    -0.9390 ha         1 I7B       0.163000
     18 H5           1.9140    -0.0400     3.3440 ha         1 I7B       0.165000
     19 HN11         3.2320     1.6730    -2.5770 hn         1 I7B       0.322133
     20 HN12         2.5560     2.1520    -1.1680 hn         1 I7B       0.322133
     21 HN21        -2.4550    -2.1810     1.4290 hn         1 I7B       0.321800
     22 HN22        -3.9350    -1.5410     1.7000 hn         1 I7B       0.321800
     23 HN31         3.9710     0.6890     1.7310 hn         1 I7B       0.323300
     24 HN32         3.9720    -0.7150     0.7140 hn         1 I7B       0.323300
     25 H13          3.9880     1.3250    -1.1930 hn         1 I7B       0.322133
     26 H23         -2.7780    -1.4150     2.8410 hn         1 I7B       0.321800
@<TRIPOS>BOND
     1     1     2 ar  
     2     1     6 ar  
     3     1    17 1   
     4     2     3 ar  
     5     2     7 1   
     6     3     4 ar  
     7     3    15 1   
     8     4     5 ar  
     9     4    18 1   
    10     5     6 ar  
    11     5    16 1   
    12     6    11 1   
    13     7     8 1   
    14     7     9 2   
    15     7    10 2   
    16     8    19 1   
    17     8    20 1   
    18     8    25 1   
    19    11    12 1   
    20    11    13 2   
    21    11    14 2   
    22    12    21 1   
    23    12    22 1   
    24    12    26 1   
    25    15    23 1   
    26    15    24 1   
@<TRIPOS>SUBSTRUCTURE
     1 I7B         1 TEMP              0 ****  ****    0 ROOT
