@<TRIPOS>MOLECULE
I7C
   29    29     1     0     0
SMALL
bcc


@<TRIPOS>ATOM
      1 C2           0.0000     0.0000     0.0000 ca         1 I7C       0.187000
      2 C1           1.3810     0.0000     0.0000 ca         1 I7C      -0.286500
      3 C6           2.0740     0.0000     1.2030 ca         1 I7C       0.206600
      4 C5           1.3750    -0.0000     2.4040 ca         1 I7C      -0.095000
      5 C4          -0.0060    -0.0000     2.3980 ca         1 I7C      -0.023300
      6 C3          -0.6930     0.0060     1.1970 ca         1 I7C      -0.241500
      7 S1           2.2620     0.0000    -1.5260 sy         1 I7C       0.971200
      8 N1           3.0870     1.4330    -1.6160 nz         1 I7C      -0.126500
      9 O1           3.2440    -1.0220    -1.4210 o          1 I7C      -0.480800
     10 O2           1.2830     0.0350    -2.5560 o          1 I7C      -0.480800
     11 S2          -2.4550     0.0070     1.1940 sy         1 I7C       0.954200
     12 N2          -2.9480    -1.4300     1.8530 nz         1 I7C      -0.167500
     13 O3          -2.8580     1.0250     2.1000 o          1 I7C      -0.470800
     14 O4          -2.8530    -0.0200    -0.1700 o          1 I7C      -0.470800
     15 N3           3.4710    -0.0020     1.2080 nv         1 I7C      -0.514200
     16 C7          -0.7650    -0.0010     3.6990 c3         1 I7C       0.612200
     17 F1          -1.5700    -1.1430     3.7690 f          1 I7C      -0.177300
     18 F2           0.1400    -0.0010     4.7660 f          1 I7C      -0.177300
     19 F3          -1.5690     1.1420     3.7700 f          1 I7C      -0.177300
     20 H2          -0.5410     0.0020    -0.9390 ha         1 I7C       0.168000
     21 H5           1.9130    -0.0030     3.3440 ha         1 I7C       0.171000
     22 HN11         2.5630     2.1490    -1.1530 hn         1 I7C       0.322467
     23 HN12         3.2170     1.6830    -2.5760 hn         1 I7C       0.322467
     24 HN21        -2.1650    -2.0490     1.9250 hn         1 I7C       0.334467
     25 HN22        -3.3280    -1.2660     2.7640 hn         1 I7C       0.334467
     26 HN31         3.9710    -0.7340     0.7440 hn         1 I7C       0.325800
     27 HN32         3.9690     0.6820     1.7430 hn         1 I7C       0.325800
     28 H13          3.9770     1.3340    -1.1690 hn         1 I7C       0.322467
     29 H23         -3.6370    -1.8490     1.2620 hn         1 I7C       0.334467
@<TRIPOS>BOND
     1     1     2 ar  
     2     1     6 ar  
     3     1    20 1   
     4     2     3 ar  
     5     2     7 1   
     6     3     4 ar  
     7     3    15 1   
     8     4     5 ar  
     9     4    21 1   
    10     5     6 ar  
    11     5    16 1   
    12     6    11 1   
    13     7     8 1   
    14     7     9 2   
    15     7    10 2   
    16     8    22 1   
    17     8    23 1   
    18     8    28 1   
    19    11    12 1   
    20    11    13 2   
    21    11    14 2   
    22    12    24 1   
    23    12    25 1   
    24    12    29 1   
    25    15    26 1   
    26    15    27 1   
    27    16    17 1   
    28    16    18 1   
    29    16    19 1   
@<TRIPOS>SUBSTRUCTURE
     1 I7C         1 TEMP              0 ****  ****    0 ROOT
