@<TRIPOS>MOLECULE
molecule
   53    56     1     0     0
SMALL
bcc


@<TRIPOS>ATOM
      1 O12          0.0000     0.0000     0.0000 oh         1 I7T      -0.483100
      2 C12          1.3480     0.0000     0.0000 c2         1 I7T       0.105900
      3 C1B          1.9740     0.0060    -1.1790 ce         1 I7T      -0.207400
      4 C11          1.1920    -0.0130    -2.3720 c          1 I7T       0.582900
      5 O11         -0.0120    -0.1900    -2.3210 o          1 I7T      -0.470100
      6 C1A          1.8680     0.1860    -3.6700 ca         1 I7T      -0.204600
      7 C10          1.1910    -0.0650    -4.8690 ca         1 I7T       0.209100
      8 O10         -0.0990    -0.4870    -4.8490 oh         1 I7T      -0.462100
      9 C9           1.8460     0.1200    -6.0780 ca         1 I7T      -0.249000
     10 C8           3.1560     0.5580    -6.0950 ca         1 I7T      -0.029000
     11 C7           3.8210     0.8260    -4.9090 ca         1 I7T      -0.007100
     12 C61          3.1830     0.6530    -3.6990 ca         1 I7T       0.011700
     13 C6           3.8970     0.9850    -2.4150 c3         1 I7T      -0.044100
     14 C5           4.1220     0.4280     0.0090 c3         1 I7T      -0.081400
     15 C1C          2.0540     0.0000     1.3300 c3         1 I7T       0.120000
     16 C1           2.0420     1.4230     1.8580 c          1 I7T       0.567300
     17 O1           1.2100     2.2180     1.4700 o          1 I7T      -0.476100
     18 O1C          1.3970    -0.8790     2.2450 oh         1 I7T      -0.540800
     19 C41          3.5110    -0.4160     1.1240 c3         1 I7T      -0.064700
     20 C4           4.3100    -0.3210     2.4100 c3         1 I7T       0.184700
     21 N4           3.8760    -1.3900     3.3190 n3         1 I7T      -0.695600
     22 C42          4.1990    -2.7140     2.7690 c3         1 I7T       0.143100
     23 C43          4.4660    -1.2180     4.6530 c3         1 I7T       0.143100
     24 C3           4.1320     1.0000     3.0930 c2         1 I7T       0.255900
     25 O3           5.0560     1.4000     3.9790 oh         1 I7T      -0.525100
     26 C2           3.0500     1.8160     2.8400 ce         1 I7T      -0.372400
     27 C21          2.9090     3.0910     3.5630 c          1 I7T       0.529300
     28 C5A          3.4740     0.0140    -1.3130 c3         1 I7T      -0.014500
     29 O21          2.1340     3.1790     4.4960 o          1 I7T      -0.369100
     30 I7           5.8050     1.4960    -4.9560 i          1 I7T      -0.157900
     31 N21          3.6390     4.1610     3.1900 nz         1 I7T      -0.681400
     32 H12         -0.3140    -0.8810     0.1180 ho         1 I7T       0.445000
     33 H5A          3.8100    -0.9820    -1.5740 hc         1 I7T       0.084700
     34 H10         -0.5130    -0.2700    -5.6670 ho         1 I7T       0.439000
     35 H9           1.6710    -0.6930    -6.7730 ha         1 I7T       0.169000
     36 H8           3.3290     1.3170    -6.8480 ha         1 I7T       0.168000
     37 H61C         3.6450     1.9950    -2.1170 hc         1 I7T       0.068700
     38 H62C         4.9660     0.9060    -2.5690 hc         1 I7T       0.068700
     39 H51C         5.1890     0.2520    -0.0380 hc         1 I7T       0.043700
     40 H52C         3.9260     1.4770     0.1970 hc         1 I7T       0.043700
     41 H41          3.5200    -1.4500     0.8020 hc         1 I7T       0.108700
     42 H1C          0.5490    -0.5290     2.4630 ho         1 I7T       0.424000
     43 H4           5.3590    -0.4560     2.1780 h1         1 I7T       0.054700
     44 H431         5.5270    -1.0200     4.5560 h1         1 I7T       0.047700
     45 H432         4.3190    -2.1220     5.2320 h1         1 I7T       0.047700
     46 H433         3.9880    -0.3860     5.1550 h1         1 I7T       0.047700
     47 H421         4.3810    -3.4080     3.5810 h1         1 I7T       0.047700
     48 H422         5.0850    -2.6420     2.1500 h1         1 I7T       0.047700
     49 H423         3.3680    -3.0690     2.1710 h1         1 I7T       0.047700
     50 H3           5.8120     1.7260     3.5190 ho         1 I7T       0.449000
     51 H211         4.1400     3.9470     2.3500 hn         1 I7T       0.476800
     52 H212         4.2870     4.3920     3.9160 hn         1 I7T       0.476800
     53 H213         3.0310     4.9390     3.0260 hn         1 I7T       0.476800
@<TRIPOS>BOND
     1     1     2 1
     2     2     3 2
     3     2    15 1
     4     3     4 1
     5     3    28 1
     6     4     5 2
     7     4     6 1
     8     6     7 ar
     9     6    12 ar
    10     7     8 1
    11     7     9 ar
    12     9    10 ar
    13    10    11 ar
    14    11    12 ar
    15    11    30 1
    16    12    13 1
    17    13    28 1
    18    14    19 1
    19    14    28 1
    20    15    16 1
    21    15    18 1
    22    15    19 1
    23    16    17 2
    24    16    26 1
    25    19    20 1
    26    20    21 1
    27    20    24 1
    28    21    23 1
    29    21    22 1
    30    24    25 1
    31    24    26 2
    32    26    27 1
    33    27    29 2
    34    27    31 1
    35     1    32 1
    36    28    33 1
    37     8    34 1
    38     9    35 1
    39    10    36 1
    40    13    37 1
    41    13    38 1
    42    14    39 1
    43    14    40 1
    44    19    41 1
    45    18    42 1
    46    20    43 1
    47    23    44 1
    48    23    45 1
    49    23    46 1
    50    22    47 1
    51    22    48 1
    52    22    49 1
    53    25    50 1
    54    31    51 1
    55    31    52 1
    56    53    31 1
@<TRIPOS>SUBSTRUCTURE
     1 I7T         1 TEMP              0 ****  ****    0 ROOT
