@<TRIPOS>MOLECULE
I84
   48    49     1     0     0
SMALL
bcc


@<TRIPOS>ATOM
      1 C1           0.0000     0.0000     0.0000 ca         1 I84      -0.101000
      2 C2           1.3820     0.0000     0.0000 ca         1 I84      -0.072300
      3 C3           2.0730     0.0000     1.1960 ca         1 I84      -0.063300
      4 C4           1.3810     0.0110     2.3940 ca         1 I84      -0.079000
      5 C5           0.0010     0.0130     2.3940 ca         1 I84      -0.106000
      6 C6          -0.6910     0.0060     1.1960 ca         1 I84      -0.101000
      7 C11          2.1360    -0.0080    -1.3050 c3         1 I84       0.056200
      8 C15          3.5800    -0.0010     1.1970 c3         1 I84      -0.050100
      9 C16          4.0810    -1.4220     1.2100 c          1 I84       0.554100
     10 N19          5.4060    -1.6680     1.2120 ns         1 I84      -0.041100
     11 C20          5.8720    -2.9830     1.3310 ca         1 I84      -0.046400
     12 O21          3.2930    -2.3430     1.2170 o          1 I84      -0.617100
     13 C22          5.1850    -3.8960     2.1180 ca         1 I84      -0.170500
     14 C23          5.6480    -5.1920     2.2320 ca         1 I84       0.057200
     15 C24          6.7950    -5.5790     1.5660 ca         1 I84      -0.164500
     16 C25          7.4820    -4.6720     0.7810 ca         1 I84       0.057200
     17 C26          7.0200    -3.3760     0.6580 ca         1 I84      -0.170500
     18 C29          8.7320    -5.0990     0.0560 c3         1 I84       0.016200
     19 C33          4.9010    -6.1850     3.0860 c3         1 I84       0.016200
     20 S37          7.3820    -7.2340     1.7160 sy         1 I84       1.026200
     21 N38          8.5160    -7.2500     2.9220 n7         1 I84      -0.554100
     22 C39          8.1460    -6.8460     4.2810 c3         1 I84       0.105800
     23 C40          9.3500    -6.9500     5.1800 c          1 I84       0.975600
     24 O43          9.2460    -6.6280     6.4800 o          1 I84      -0.890800
     25 O44         10.4090    -7.3210     4.7330 o          1 I84      -0.890800
     26 O45          6.2850    -7.9900     2.2080 o          1 I84      -0.618300
     27 O46          8.0920    -7.5010     0.5150 o          1 I84      -0.618300
     28 H1          -0.5410    -0.0030    -0.9380 ha         1 I84       0.101000
     29 H4           1.9230     0.0140     3.3320 ha         1 I84       0.104000
     30 H5          -0.5410     0.0200     3.3320 ha         1 I84       0.099000
     31 H6          -1.7750     0.0070     1.1960 ha         1 I84       0.097000
     32 H111         2.7750     0.8650    -1.3580 hc         1 I84       0.008700
     33 H112         1.4320     0.0100    -2.1280 hc         1 I84       0.008700
     34 H113         2.7410    -0.9040    -1.3670 hc         1 I84       0.008700
     35 H151         3.9420     0.5010     0.3070 hc         1 I84       0.032200
     36 H152         3.9420     0.5180     2.0760 hc         1 I84       0.032200
     37 H19          6.0560    -0.9090     1.1730 hn         1 I84       0.163500
     38 H22          4.2860    -3.5940     2.6400 ha         1 I84       0.122500
     39 H26          7.5580    -2.6650     0.0430 ha         1 I84       0.122500
     40 H291         9.4200    -5.5530     0.7590 hc         1 I84       0.031700
     41 H292         8.4750    -5.8170    -0.7130 hc         1 I84       0.031700
     42 H293         9.1990    -4.2340    -0.3990 hc         1 I84       0.031700
     43 H331         4.4770    -6.9570     2.4560 hc         1 I84       0.031700
     44 H332         4.1070    -5.6770     3.6200 hc         1 I84       0.031700
     45 H333         5.5840    -6.6340     3.7980 hc         1 I84       0.031700
     46 H38          9.4450    -7.5710     2.7320 hn         1 I84       0.377800
     47 H391         7.7910    -5.8230     4.2700 h1         1 I84       0.009700
     48 H392         7.3620    -7.4970     4.6500 h1         1 I84       0.009700
@<TRIPOS>BOND
     1     1     2 ar  
     2     1     6 ar  
     3     1    28 1   
     4     2     3 ar  
     5     2     7 1   
     6     3     4 ar  
     7     3     8 1   
     8     4     5 ar  
     9     4    29 1   
    10     5     6 ar  
    11     5    30 1   
    12     6    31 1   
    13     7    32 1   
    14     7    33 1   
    15     7    34 1   
    16     8     9 1   
    17     8    35 1   
    18     8    36 1   
    19     9    10 1   
    20     9    12 2   
    21    10    11 1   
    22    10    37 1   
    23    11    13 ar  
    24    11    17 ar  
    25    13    14 ar  
    26    13    38 1   
    27    14    15 ar  
    28    14    19 1   
    29    15    16 ar  
    30    15    20 1   
    31    16    17 ar  
    32    16    18 1   
    33    17    39 1   
    34    18    40 1   
    35    18    41 1   
    36    18    42 1   
    37    19    43 1   
    38    19    44 1   
    39    19    45 1   
    40    20    21 1   
    41    20    26 2   
    42    20    27 2   
    43    21    22 1   
    44    21    46 1   
    45    22    23 1   
    46    22    47 1   
    47    22    48 1   
    48    23    24 1   
    49    23    25 1   
@<TRIPOS>SUBSTRUCTURE
     1 I84         1 TEMP              0 ****  ****    0 ROOT
