@<TRIPOS>MOLECULE
I85
   56    60     1     0     0
SMALL
bcc


@<TRIPOS>ATOM
      1 N1           0.0000     0.0000     0.0000 ns         1 I85      -0.116400
      2 N2          10.4760    -1.2850    -0.4660 n7         1 I85      -0.577200
      3 C3          11.0780    -0.0140    -0.0450 c3         1 I85       0.142800
      4 C4           2.4040     0.0000     0.0000 ca         1 I85      -0.289300
      5 N5           1.1950     0.0020     2.0240 nb         1 I85      -0.564000
      6 N6           6.2870    -0.0040    -0.0990 na         1 I85       0.483900
      7 C7           8.4780    -0.0190    -1.4700 c3         1 I85       0.048300
      8 N8           7.8920    -0.2770    -3.8750 ns         1 I85      -0.206900
      9 C9           6.5780    -0.0080    -3.6890 c          1 I85       0.688100
     10 C10          9.0950     1.2060    -0.9470 c3         1 I85      -0.009400
     11 C11         10.6220     1.1040    -0.9850 c3         1 I85      -0.025400
     12 C12          9.0100    -1.2280    -0.3920 c3         1 I85       0.109800
     13 O13          5.8350     0.2210    -4.6220 o          1 I85      -0.684500
     14 C14          6.9900    -0.0090    -1.2330 cc         1 I85      -0.331600
     15 C15          6.0940    -0.0080    -2.2960 cd         1 I85      -0.230600
     16 C16          4.8020    -0.0060    -1.7570 cd         1 I85      -0.073000
     17 C17          4.9420    -0.0030    -0.4010 cc         1 I85      -0.315300
     18 C18          3.6050     0.0000     0.7150 ca         1 I85       0.097000
     19 C19          3.5410     0.0010     2.1160 ca         1 I85      -0.263300
     20 C20          2.3080     0.0020     2.7310 ca         1 I85       0.446200
     21 C21          1.2050    -0.0000     0.6990 ca         1 I85       0.373200
     22 C22          8.7650    -0.7210    -2.7960 c3         1 I85       0.061000
     23 C23         -1.1660    -0.1020     0.6670 c          1 I85       0.568700
     24 C24         -2.4370    -0.2170    -0.0780 ca         1 I85      -0.166600
     25 C25         -2.4330    -0.2180    -1.4750 ca         1 I85      -0.053000
     26 C26         -3.6230    -0.3260    -2.1650 ca         1 I85      -0.112000
     27 C27         -4.8180    -0.4300    -1.4760 ca         1 I85      -0.024000
     28 C28         -4.8300    -0.4290    -0.0920 ca         1 I85      -0.222300
     29 C29         -3.6460    -0.3290     0.6100 ca         1 I85       0.027000
     30 O30         -1.1730    -0.1010     1.8820 o          1 I85      -0.565100
     31 C31         -6.1360    -0.5430     0.6490 c3         1 I85       0.642200
     32 F32         -7.1870    -0.6370    -0.2700 f          1 I85      -0.206300
     33 F33         -6.1180    -1.6870     1.4540 f          1 I85      -0.206300
     34 F34         -6.3180     0.5890     1.4510 f          1 I85      -0.206300
     35 HN1         -0.0010     0.1000    -0.9960 hn         1 I85       0.176500
     36 H3          12.1570    -0.0970    -0.0820 h1         1 I85       0.007700
     37 H3A         10.7630     0.2160     0.9660 h1         1 I85       0.007700
     38 H4           2.4100     0.1860    -1.0670 ha         1 I85       0.135000
     39 HN6          6.6750    -0.0020     0.8240 hn         1 I85       0.106700
     40 HN8          8.2790    -0.1650    -4.7910 hn         1 I85       0.174500
     41 H10          8.8550     2.0370    -1.5990 hc         1 I85       0.022200
     42 H10A         8.7200     1.4010     0.0500 hc         1 I85       0.022200
     43 H11         10.9430     0.8790    -1.9950 hc         1 I85       0.025200
     44 H11A        11.0540     2.0440    -0.6640 hc         1 I85       0.025200
     45 H12          8.5980    -2.1870    -0.6820 h1         1 I85       0.007700
     46 H12A         8.7100    -0.9930     0.6220 h1         1 I85       0.007700
     47 H16          3.8710    -0.0060    -2.3110 ha         1 I85       0.138000
     48 H19          4.4490     0.0010     2.7060 ha         1 I85       0.110000
     49 H20          2.2530     0.0040     3.8130 h4         1 I85      -0.015900
     50 H22          8.3380    -1.7160    -2.7610 h1         1 I85       0.039700
     51 H22A         9.8370    -0.8010    -2.9230 h1         1 I85       0.039700
     52 H25         -1.4980    -0.1370    -2.0150 ha         1 I85       0.103000
     53 H26         -3.6210    -0.3270    -3.2480 ha         1 I85       0.114000
     54 H27         -5.7500    -0.5110    -2.0230 ha         1 I85       0.122000
     55 H29         -3.6560    -0.3280     1.6930 ha         1 I85       0.139000
     56 HN2         10.8110    -2.0240     0.1210 hn         1 I85       0.255800
@<TRIPOS>BOND
     1     1    21 1   
     2     1    23 1   
     3     1    35 1   
     4     2     3 1   
     5     2    12 1   
     6     2    56 1   
     7     3    11 1   
     8     3    36 1   
     9     3    37 1   
    10     4    18 ar  
    11     4    21 ar  
    12     4    38 1   
    13     5    20 ar  
    14     5    21 ar  
    15     6    14 1   
    16     6    17 1   
    17     6    39 1   
    18     7    10 1   
    19     7    12 1   
    20     7    14 1   
    21     7    22 1   
    22     8     9 1   
    23     8    22 1   
    24     8    40 1   
    25     9    13 2   
    26     9    15 1   
    27    10    11 1   
    28    10    41 1   
    29    10    42 1   
    30    11    43 1   
    31    11    44 1   
    32    12    45 1   
    33    12    46 1   
    34    14    15 2   
    35    15    16 1   
    36    16    17 2   
    37    16    47 1   
    38    17    18 1   
    39    18    19 ar  
    40    19    20 ar  
    41    19    48 1   
    42    20    49 1   
    43    22    50 1   
    44    22    51 1   
    45    23    24 1   
    46    23    30 2   
    47    24    25 ar  
    48    24    29 ar  
    49    25    26 ar  
    50    25    52 1   
    51    26    27 ar  
    52    26    53 1   
    53    27    28 ar  
    54    27    54 1   
    55    28    29 ar  
    56    28    31 1   
    57    29    55 1   
    58    31    32 1   
    59    31    33 1   
    60    31    34 1   
@<TRIPOS>SUBSTRUCTURE
     1 I85         1 TEMP              0 ****  ****    0 ROOT
