@<TRIPOS>MOLECULE
molecule
   56    60     1     0     0
SMALL
bcc


@<TRIPOS>ATOM
      1 N1           0.0000     0.0000     0.0000 ns         1 I85      -0.550400
      2 N2          10.4760    -1.2850    -0.4660 n7         1 I85      -0.823200
      3 C3          11.0780    -0.0140    -0.0450 c3         1 I85       0.153800
      4 C4           2.4040     0.0000     0.0000 ca         1 I85      -0.299300
      5 N5           1.1950     0.0020     2.0240 nb         1 I85      -0.688000
      6 N6           6.2870    -0.0040    -0.0990 na         1 I85      -0.117100
      7 C7           8.4780    -0.0190    -1.4700 c3         1 I85       0.013300
      8 N8           7.8920    -0.2770    -3.8750 ns         1 I85      -0.594900
      9 C9           6.5780    -0.0080    -3.6890 c          1 I85       0.755100
     10 C10          9.0950     1.2060    -0.9470 c3         1 I85      -0.059400
     11 C11         10.6220     1.1040    -0.9850 c3         1 I85      -0.079400
     12 C12          9.0100    -1.2280    -0.3920 c3         1 I85       0.134800
     13 O13          5.8350     0.2210    -4.6220 o          1 I85      -0.642500
     14 C14          6.9900    -0.0090    -1.2330 cc         1 I85      -0.098600
     15 C15          6.0940    -0.0080    -2.2960 cd         1 I85      -0.224600
     16 C16          4.8020    -0.0060    -1.7570 cd         1 I85      -0.113000
     17 C17          4.9420    -0.0030    -0.4010 cc         1 I85      -0.103300
     18 C18          3.6050     0.0000     0.7150 ca         1 I85       0.069000
     19 C19          3.5410     0.0010     2.1160 ca         1 I85      -0.289300
     20 C20          2.3080     0.0020     2.7310 ca         1 I85       0.466200
     21 C21          1.2050    -0.0000     0.6990 ca         1 I85       0.564200
     22 C22          8.7650    -0.7210    -2.7960 c3         1 I85       0.132000
     23 C23         -1.1660    -0.1020     0.6670 c          1 I85       0.663700
     24 C24         -2.4370    -0.2170    -0.0780 ca         1 I85      -0.152600
     25 C25         -2.4330    -0.2180    -1.4750 ca         1 I85      -0.081000
     26 C26         -3.6230    -0.3260    -2.1650 ca         1 I85      -0.139000
     27 C27         -4.8180    -0.4300    -1.4760 ca         1 I85      -0.061000
     28 C28         -4.8300    -0.4290    -0.0920 ca         1 I85      -0.190300
     29 C29         -3.6460    -0.3290     0.6100 ca         1 I85      -0.019000
     30 O30         -1.1730    -0.1010     1.8820 o          1 I85      -0.523100
     31 C31         -6.1360    -0.5430     0.6490 c3         1 I85       0.676200
     32 F32         -7.1870    -0.6370    -0.2700 f          1 I85      -0.220633
     33 F33         -6.1180    -1.6870     1.4540 f          1 I85      -0.220633
     34 F34         -6.3180     0.5890     1.4510 f          1 I85      -0.220633
     35 HN1         -0.0010     0.1000    -0.9960 hn         1 I85       0.332500
     36 H3          12.1570    -0.0970    -0.0820 h1         1 I85       0.033700
     37 H3A         10.7630     0.2160     0.9660 h1         1 I85       0.033700
     38 H4           2.4100     0.1860    -1.0670 ha         1 I85       0.148000
     39 HN6          6.6750    -0.0020     0.8240 hn         1 I85       0.297700
     40 HN8          8.2790    -0.1650    -4.7910 hn         1 I85       0.317500
     41 H10          8.8550     2.0370    -1.5990 hc         1 I85       0.052200
     42 H10A         8.7200     1.4010     0.0500 hc         1 I85       0.052200
     43 H11         10.9430     0.8790    -1.9950 hc         1 I85       0.054700
     44 H11A        11.0540     2.0440    -0.6640 hc         1 I85       0.054700
     45 H12          8.5980    -2.1870    -0.6820 h1         1 I85       0.035700
     46 H12A         8.7100    -0.9930     0.6220 h1         1 I85       0.035700
     47 H16          3.8710    -0.0060    -2.3110 ha         1 I85       0.164000
     48 H19          4.4490     0.0010     2.7060 ha         1 I85       0.135000
     49 H20          2.2530     0.0040     3.8130 h4         1 I85       0.034100
     50 H22          8.3380    -1.7160    -2.7610 h1         1 I85       0.070200
     51 H22A         9.8370    -0.8010    -2.9230 h1         1 I85       0.070200
     52 H25         -1.4980    -0.1370    -2.0150 ha         1 I85       0.130000
     53 H26         -3.6210    -0.3270    -3.2480 ha         1 I85       0.144000
     54 H27         -5.7500    -0.5110    -2.0230 ha         1 I85       0.154000
     55 H29         -3.6560    -0.3280     1.6930 ha         1 I85       0.172000
     56 HN2         10.8110    -2.0240     0.1210 hn         1 I85       0.359800
@<TRIPOS>BOND
     1     1    21 1
     2     1    23 1
     3     2     3 1
     4     2    12 1
     5     3    11 1
     6     4    18 ar
     7     4    21 ar
     8     5    20 ar
     9     5    21 ar
    10     6    14 1
    11     6    17 1
    12     7    10 1
    13     7    12 1
    14     7    14 1
    15     7    22 1
    16     8     9 1
    17     8    22 1
    18     9    13 2
    19     9    15 1
    20    10    11 1
    21    14    15 2
    22    15    16 1
    23    16    17 2
    24    17    18 1
    25    18    19 ar
    26    19    20 ar
    27    23    24 1
    28    23    30 2
    29    24    25 ar
    30    24    29 ar
    31    25    26 ar
    32    26    27 ar
    33    27    28 ar
    34    28    29 ar
    35    28    31 1
    36    31    32 1
    37    31    33 1
    38    31    34 1
    39     1    35 1
    40     2    56 1
    41     3    36 1
    42     3    37 1
    43     4    38 1
    44     6    39 1
    45     8    40 1
    46    10    41 1
    47    10    42 1
    48    11    43 1
    49    11    44 1
    50    12    45 1
    51    12    46 1
    52    16    47 1
    53    19    48 1
    54    20    49 1
    55    22    50 1
    56    22    51 1
    57    25    52 1
    58    26    53 1
    59    27    54 1
    60    29    55 1
@<TRIPOS>SUBSTRUCTURE
     1 I85         1 TEMP              0 ****  ****    0 ROOT
