@<TRIPOS>MOLECULE
molecule
   21    21     1     0     0
SMALL
bcc


@<TRIPOS>ATOM
      1 O01          0.0000     0.0000     0.0000 o          1 I92      -0.813800
      2 C02          1.3460     0.0000     0.0000 c          1 I92       0.809600
      3 O03          1.9530     0.0000     1.0500 o          1 I92      -0.813800
      4 C04          2.0910     0.0020    -1.2910 c          1 I92       0.462100
      5 O05          1.4870     0.0020    -2.3380 o          1 I92      -0.498100
      6 C06          3.5980     0.0030    -1.2910 c3         1 I92      -0.279400
      7 C07          4.1010     0.0040    -2.7120 c          1 I92       0.539700
      8 O08          3.3130     0.0040    -3.6340 o          1 I92      -0.457100
      9 C09          5.5470     0.0050    -2.9800 ca         1 I92      -0.137600
     10 C10          6.4600     0.0050    -1.9200 ca         1 I92      -0.089000
     11 C11          7.8130     0.0050    -2.1800 ca         1 I92      -0.139000
     12 C12          8.2720     0.0060    -3.4870 ca         1 I92      -0.121000
     13 C13          7.3760     0.0070    -4.5420 ca         1 I92      -0.126000
     14 C14          6.0180     0.0000    -4.2990 ca         1 I92       0.019100
     15 Br15         4.7960    -0.0060    -5.7420 br         1 I92      -0.058100
     16 H06          3.9580     0.8870    -0.7800 hc         1 I92       0.081700
     17 H06A         3.9600    -0.8820    -0.7810 hc         1 I92       0.081700
     18 H10          6.1040     0.0040    -0.8970 ha         1 I92       0.152000
     19 H11          8.5200     0.0050    -1.3590 ha         1 I92       0.128000
     20 H12          9.3370     0.0090    -3.6840 ha         1 I92       0.124000
     21 H13          7.7430     0.0050    -5.5610 ha         1 I92       0.135000
@<TRIPOS>BOND
     1     2     1 1
     2     4     2 1
     3     3     2 1
     4     5     4 2
     5     4     6 1
     6     7     6 1
     7     6    16 1
     8     6    17 1
     9     8     7 2
    10     7     9 1
    11    14     9 ar
    12     9    10 ar
    13    10    11 ar
    14    10    18 1
    15    12    11 ar
    16    11    19 1
    17    13    12 ar
    18    12    20 1
    19    14    13 ar
    20    13    21 1
    21    15    14 1
@<TRIPOS>SUBSTRUCTURE
     1 I92         1 TEMP              0 ****  ****    0 ROOT
