@<TRIPOS>MOLECULE
I92
   21    21     1     0     0
SMALL
bcc


@<TRIPOS>ATOM
      1 O01         2.1930   -1.1490    0.8130 o         1 I92     -0.808300
      2 C02         3.1770   -0.7070    0.1720 c         1 I92      0.854600
      3 O03         4.3040   -0.4090    0.6590 o         1 I92     -0.808300
      4 C04         2.9950   -0.4410   -1.3350 c         1 I92      0.461100
      5 O05         2.7580   -1.3050   -2.1820 o         1 I92     -0.558100
      6 C06         3.0870    1.0240   -1.6940 c3        1 I92     -0.294400
      7 C07         4.0300    1.4090   -2.7950 c         1 I92      0.602700
      8 O08         3.8610    2.4700   -3.4140 o         1 I92     -0.554100
      9 C09         5.2190    0.5490   -3.0320 ca        1 I92     -0.124600
     10 C10         5.9370    0.1140   -1.9070 ca        1 I92     -0.090000
     11 C11         7.1040   -0.6310   -2.0550 ca        1 I92     -0.124000
     12 C12         7.5590   -0.9690   -3.3290 ca        1 I92     -0.127000
     13 C13         6.8350   -0.5750   -4.4510 ca        1 I92     -0.136000
     14 C14         5.6640    0.1800   -4.3100 ca        1 I92      0.026100
     15 BR15        4.7320    0.6020   -5.8880 br        1 I92     -0.103100
     16 H06         3.4240    1.5850   -0.7750 hc        1 I92      0.090200
     17 H06A        2.0560    1.3860   -1.9570 hc        1 I92      0.090200
     18 H10         5.5430    0.3220   -0.8870 ha        1 I92      0.212000
     19 H11         7.6500   -0.9670   -1.1610 ha        1 I92      0.139000
     20 H12         8.4790   -1.5580   -3.4510 ha        1 I92      0.121000
     21 H13         7.1860   -0.8680   -5.4520 ha        1 I92      0.131000
@<TRIPOS>BOND
     1    1    2 1   
     2    2    3 1   
     3    2    4 1   
     4    4    5 2   
     5    4    6 1   
     6    6    7 1   
     7    6   16 1   
     8    6   17 1   
     9    7    8 2   
    10    7    9 1   
    11    9   10 ar  
    12    9   14 ar  
    13   10   11 ar  
    14   10   18 1   
    15   11   12 ar  
    16   11   19 1   
    17   12   13 ar  
    18   12   20 1   
    19   13   14 ar  
    20   13   21 1   
    21   14   15 1   
@<TRIPOS>SUBSTRUCTURE
     1 I92         1 TEMP              0 ****  ****    0 ROOT
