@<TRIPOS>MOLECULE
molecule
   24    24     1     0     0
SMALL
bcc


@<TRIPOS>ATOM
      1 C01          0.0000     0.0000     0.0000 c3         1 I93      -0.042800
      2 C02          1.5070     0.0000     0.0000 ca         1 I93      -0.116300
      3 C03          2.1970     0.0000     1.2010 ca         1 I93      -0.087000
      4 C04          3.5800     0.0010     1.2140 ca         1 I93      -0.187000
      5 C05          4.2860    -0.0000     0.0250 ca         1 I93       0.173900
      6 F06          5.6370     0.0010     0.0390 f          1 I93      -0.115900
      7 C07          3.5950    -0.0000    -1.1940 ca         1 I93      -0.191600
      8 C08          4.3360    -0.0020    -2.4620 c          1 I93       0.548700
      9 O09          3.7350    -0.0020    -3.5160 o          1 I93      -0.464100
     10 C10          5.8430    -0.0020    -2.4550 c3         1 I93      -0.278400
     11 C11          6.3530    -0.0020    -3.8740 c          1 I93       0.462100
     12 O12          5.5710    -0.0030    -4.7950 o          1 I93      -0.503100
     13 C13          7.8190    -0.0020    -4.1390 c          1 I93       0.809600
     14 O14          8.2740    -0.0020    -5.4060 o          1 I93      -0.813300
     15 O15          8.6020    -0.0010    -3.2140 o          1 I93      -0.813300
     16 C16          2.1940    -0.0060    -1.1960 ca         1 I93       0.089400
     17 Cl17         1.3260    -0.0130    -2.6980 cl         1 I93      -0.058400
     18 H01         -0.3610     0.0170     1.0210 hc         1 I93       0.044367
     19 H01A        -0.3610    -0.8930    -0.4960 hc         1 I93       0.044367
     20 H01B        -0.3610     0.8760    -0.5250 hc         1 I93       0.044367
     21 H03          1.6500     0.0010     2.1360 ha         1 I93       0.132000
     22 H04          4.1110     0.0010     2.1580 ha         1 I93       0.143000
     23 H10          6.2020    -0.8860    -1.9420 hc         1 I93       0.090700
     24 H10A         6.2020     0.8830    -1.9430 hc         1 I93       0.090700
@<TRIPOS>BOND
     1     1     2 1
     2     1    18 1
     3     1    19 1
     4     1    20 1
     5    16     2 ar
     6     2     3 ar
     7     3     4 ar
     8     3    21 1
     9     5     4 ar
    10     4    22 1
    11     7     5 ar
    12     5     6 1
    13    16     7 ar
    14     8     7 1
    15     9     8 2
    16     8    10 1
    17    11    10 1
    18    10    23 1
    19    10    24 1
    20    12    11 2
    21    11    13 1
    22    15    13 1
    23    13    14 1
    24    17    16 1
@<TRIPOS>SUBSTRUCTURE
     1 I93         1 TEMP              0 ****  ****    0 ROOT
