@<TRIPOS>MOLECULE
I93
   24    24     1     0     0
SMALL
bcc


@<TRIPOS>ATOM
      1 C01         0.4630   -0.8510   -0.4780 c3        1 I93     -0.048800
      2 C02         1.8030   -0.2510   -0.2810 ca        1 I93     -0.098300
      3 C03         2.4000   -0.2800    0.9820 ca        1 I93     -0.098000
      4 C04         3.6560    0.2730    1.1930 ca        1 I93     -0.174000
      5 C05         4.3480    0.8590    0.1170 ca        1 I93      0.157900
      6 F06         5.5640    1.4090    0.3460 f         1 I93     -0.134900
      7 C07         3.7770    0.8850   -1.1740 ca        1 I93     -0.164600
      8 C08         4.5440    1.4780   -2.3120 c         1 I93      0.608700
      9 O09         4.1770    2.5310   -2.8410 o         1 I93     -0.536100
     10 C10         5.7970    0.7610   -2.7020 c3        1 I93     -0.300400
     11 C11         5.6380   -0.5340   -3.4690 c         1 I93      0.477100
     12 O12         4.5800   -0.8680   -4.0040 o         1 I93     -0.572100
     13 C13         6.9460   -1.3530   -3.4990 c         1 I93      0.859600
     14 O14         7.6840   -1.2130   -4.5060 o         1 I93     -0.803800
     15 O15         7.1830   -2.0630   -2.4870 o         1 I93     -0.803800
     16 C16         2.4960    0.3450   -1.3510 ca        1 I93      0.081400
     17 CL17        1.7590    0.4050   -2.8790 cl        1 I93     -0.055400
     18 H01         0.0700   -1.2800    0.4760 hc        1 I93      0.046033
     19 H01A       -0.2610   -0.0790   -0.8430 hc        1 I93      0.046033
     20 H01B        0.5140   -1.6690   -1.2400 hc        1 I93      0.046033
     21 H03         1.8680   -0.7500    1.8230 ha        1 I93      0.130000
     22 H04         4.1240    0.2510    2.1870 ha        1 I93      0.144000
     23 H10         6.4240    1.4360   -3.3480 hc        1 I93      0.097200
     24 H10A        6.3830    0.5200   -1.7720 hc        1 I93      0.097200
@<TRIPOS>BOND
     1    1    2 1   
     2    1   18 1   
     3    1   19 1   
     4    1   20 1   
     5    2    3 ar  
     6    2   16 ar  
     7    3    4 ar  
     8    3   21 1   
     9    4    5 ar  
    10    4   22 1   
    11    5    6 1   
    12    5    7 ar  
    13    7    8 1   
    14    7   16 ar  
    15    8    9 2   
    16    8   10 1   
    17   10   11 1   
    18   10   23 1   
    19   10   24 1   
    20   11   12 2   
    21   11   13 1   
    22   13   14 1   
    23   13   15 1   
    24   16   17 1   
@<TRIPOS>SUBSTRUCTURE
     1 I93         1 TEMP              0 ****  ****    0 ROOT
