@<TRIPOS>MOLECULE
molecule
   40    42     1     0     0
SMALL
bcc


@<TRIPOS>ATOM
      1 C1           0.0000     0.0000     0.0000 ca         1 I96       0.187600
      2 C2           1.3950     0.0000     0.0000 ca         1 I96      -0.115300
      3 N3          -0.7230    -0.0000    -1.2130 nu         1 I96      -0.798300
      4 C4          -0.6970    -0.0000     1.2090 ca         1 I96      -0.148000
      5 C5           2.0930     0.0000     1.2070 ca         1 I96      -0.098000
      6 C6           2.1660     0.0010    -1.2800 c3         1 I96      -0.027400
      7 C7          -1.9820     0.5170    -1.5710 cc         1 I96       0.712400
      8 C8           0.0020    -0.0000     2.4160 ca         1 I96      -0.107000
      9 C9           1.3960    -0.0000     2.4150 ca         1 I96      -0.151000
     10 C10          3.0360    -1.2600    -1.4410 c3         1 I96      -0.083100
     11 C11          3.0340     1.2610    -1.4400 c3         1 I96      -0.083100
     12 N12         -2.8250     1.1480    -0.8500 nd         1 I96      -0.731000
     13 N13         -2.3780     0.3400    -2.8310 na         1 I96      -0.192400
     14 C14         -3.8150     1.3680    -1.7640 cd         1 I96       0.627300
     15 N15         -3.5890     0.8930    -2.9910 nc         1 I96      -0.497800
     16 S16         -5.2890     2.2170    -1.3650 ss         1 I96      -0.241400
     17 C17         -5.0000     2.5910     0.3840 c3         1 I96       0.070000
     18 C18         -6.1480     3.3420     1.0010 cc         1 I96      -0.087400
     19 C19         -7.4500     2.9500     1.0850 cd         1 I96      -0.134000
     20 S20         -5.8500     4.8670     1.6910 ss         1 I96      -0.039800
     21 C21         -8.2440     3.9340     1.7410 cd         1 I96      -0.152000
     22 C22         -7.5000     5.0290     2.1230 cc         1 I96      -0.130100
     23 HN3         -0.2480    -0.4580    -1.9650 hn         1 I96       0.429800
     24 H4          -1.7800    -0.0000     1.2100 ha         1 I96       0.156000
     25 H5           3.1760    -0.0000     1.2070 ha         1 I96       0.136000
     26 H6           1.4460     0.0010    -2.0890 hc         1 I96       0.029700
     27 H8          -0.5390    -0.0010     3.3550 ha         1 I96       0.135000
     28 H9           1.9380    -0.0000     3.3530 ha         1 I96       0.132000
     29 H101         3.8440    -1.2360    -0.7200 hc         1 I96       0.038200
     30 H102         3.4470    -1.2900    -2.4430 hc         1 I96       0.038200
     31 H103         2.4290    -2.1410    -1.2730 hc         1 I96       0.038200
     32 H111         3.3370     1.3620    -2.4750 hc         1 I96       0.038200
     33 H112         2.4630     2.1330    -1.1440 hc         1 I96       0.038200
     34 H113         3.9140     1.1760    -0.8130 hc         1 I96       0.038200
     35 HN13        -1.8550    -0.1300    -3.5440 hn         1 I96       0.326700
     36 H171        -4.1010     3.1890     0.4710 h1         1 I96       0.082200
     37 H172        -4.8580     1.6620     0.9230 h1         1 I96       0.082200
     38 H19         -7.8330     2.0110     0.7020 ha         1 I96       0.161000
     39 H21         -9.3080     3.8340     1.9180 ha         1 I96       0.153000
     40 H22         -7.9090     5.8910     2.6360 h4         1 I96       0.167000
@<TRIPOS>BOND
     1     1     4 ar
     2     1     3 1
     3     1     2 ar
     4     2     5 ar
     5     2     6 1
     6     3     7 1
     7     3    23 1
     8     4     8 ar
     9     4    24 1
    10     5     9 ar
    11     5    25 1
    12     6    11 1
    13     6    10 1
    14     6    26 1
    15     7    12 2
    16     7    13 1
    17     8     9 ar
    18     8    27 1
    19     9    28 1
    20    10    29 1
    21    10    30 1
    22    10    31 1
    23    11    32 1
    24    11    33 1
    25    11    34 1
    26    12    14 1
    27    13    15 1
    28    13    35 1
    29    14    16 1
    30    14    15 2
    31    16    17 1
    32    17    18 1
    33    17    36 1
    34    17    37 1
    35    18    20 1
    36    18    19 2
    37    19    21 1
    38    19    38 1
    39    20    22 1
    40    21    22 2
    41    21    39 1
    42    22    40 1
@<TRIPOS>SUBSTRUCTURE
     1 I96         1 TEMP              0 ****  ****    0 ROOT
