@<TRIPOS>MOLECULE
I98
   37    38     1     0     0
SMALL
bcc


@<TRIPOS>ATOM
      1 F            0.0000     0.0000     0.0000 f          1 I98      -0.123900
      2 C15          1.3510     0.0000     0.0000 ca         1 I98       0.134900
      3 C11          2.0420     0.0000     1.1980 ca         1 I98      -0.170000
      4 C18          3.4310    -0.0010     1.1950 ca         1 I98       0.055600
      5 N2           4.1330    -0.0010     2.4040 nv         1 I98      -0.535200
      6 C17          4.1220    -0.0000    -0.0100 ca         1 I98      -0.149000
      7 C13          3.4260    -0.0010    -1.2030 ca         1 I98      -0.045000
      8 C22          2.0440    -0.0050    -1.2000 ca         1 I98      -0.156300
      9 C19          1.2890    -0.0060    -2.5040 c3         1 I98       0.121300
     10 N21          0.7400    -1.3420    -2.7500 ns         1 I98      -0.232900
     11 C20          0.0210    -1.5800    -3.8650 c          1 I98       0.587700
     12 O7          -0.1710    -0.6870    -4.6680 o          1 I98      -0.575100
     13 C14         -0.5310    -2.9250    -4.1130 ca         1 I98      -0.215600
     14 C10         -0.3140    -3.9550    -3.1940 ca         1 I98      -0.042000
     15 C16         -0.8320    -5.2080    -3.4310 ca         1 I98      -0.194000
     16 C8          -1.5700    -5.4540    -4.5780 ca         1 I98       0.040400
     17 Cl4         -2.2190    -7.0390    -4.8640 cl         1 I98      -0.064400
     18 C9          -1.7950    -4.4440    -5.4940 ca         1 I98      -0.238000
     19 C12         -1.2840    -3.1760    -5.2690 ca         1 I98       0.242100
     20 O1          -1.5020    -2.1830    -6.1680 os         1 I98      -0.201900
     21 C3          -2.2680    -2.5150    -7.3270 c3         1 I98       0.066400
     22 C5          -2.4070    -1.2970    -8.2040 c          1 I98       0.972600
     23 O6          -3.0920    -1.3740    -9.3560 o          1 I98      -0.874800
     24 O23         -1.9020    -0.2530    -7.8700 o          1 I98      -0.874800
     25 H1           1.5020     0.0600     2.1350 ha         1 I98       0.122000
     26 H2           4.7020     0.7840     2.6520 hn         1 I98       0.270800
     27 H3           4.0730    -0.7890     3.0170 hn         1 I98       0.270800
     28 H4           5.2050     0.0010    -0.0140 ha         1 I98       0.109000
     29 H5           3.9640    -0.0030    -2.1430 ha         1 I98       0.114000
     30 H6           1.9600     0.2630    -3.3100 h1         1 I98       0.033700
     31 H7           0.4800     0.7130    -2.4530 h1         1 I98       0.033700
     32 H8           0.9390    -2.0890    -2.1150 hn         1 I98       0.174500
     33 H9           0.2630    -3.7670    -2.2960 ha         1 I98       0.094000
     34 H10         -0.6620    -6.0050    -2.7170 ha         1 I98       0.107000
     35 H11         -2.3750    -4.6430    -6.3870 ha         1 I98       0.149000
     36 H12         -3.2510    -2.8570    -7.0250 h1         1 I98      -0.003300
     37 H13         -1.7670    -3.3020    -7.8790 h1         1 I98      -0.003300
@<TRIPOS>BOND
     1     1     2 1   
     2     2     3 ar  
     3     2     8 ar  
     4     3     4 ar  
     5     3    25 1   
     6     4     5 1   
     7     4     6 ar  
     8     5    26 1   
     9     5    27 1   
    10     6     7 ar  
    11     6    28 1   
    12     7     8 ar  
    13     7    29 1   
    14     8     9 1   
    15     9    10 1   
    16     9    30 1   
    17     9    31 1   
    18    10    11 1   
    19    10    32 1   
    20    11    12 2   
    21    11    13 1   
    22    13    14 ar  
    23    13    19 ar  
    24    14    15 ar  
    25    14    33 1   
    26    15    16 ar  
    27    15    34 1   
    28    16    17 1   
    29    16    18 ar  
    30    18    19 ar  
    31    18    35 1   
    32    19    20 1   
    33    20    21 1   
    34    21    22 1   
    35    21    36 1   
    36    21    37 1   
    37    22    23 1   
    38    22    24 1   
@<TRIPOS>SUBSTRUCTURE
     1 I98         1 TEMP              0 ****  ****    0 ROOT
