@<TRIPOS>MOLECULE
I9H
   55    57     1     0     0
SMALL
bcc


@<TRIPOS>ATOM
      1 CAG          0.0000     0.0000     0.0000 ca         1 I9H      -0.066000
      2 CAL          1.3800     0.0000     0.0000 ca         1 I9H      -0.103000
      3 CAR          2.0760     0.0000     1.1970 ca         1 I9H      -0.020600
      4 Cl1          3.8120     0.0000     1.1860 cl         1 I9H      -0.017400
      5 CAM          1.3930    -0.0000     2.4020 ca         1 I9H      -0.103000
      6 CAH          0.0140     0.0000     2.4170 ca         1 I9H      -0.066000
      7 CAC         -0.6940     0.0000     1.2120 ca         1 I9H      -0.127900
      8 CAA         -2.1690     0.0010     1.2200 ce         1 I9H       0.393900
      9 NAD         -2.9190     0.0330     0.1730 n2         1 I9H      -0.475400
     10 CAB         -3.0340    -0.0430     2.4590 c3         1 I9H      -0.047600
     11 NAF         -2.7900     1.1330     3.2990 n          1 I9H      -0.156800
     12 CAK         -2.8930     2.4760     2.7250 c3         1 I9H       0.028000
     13 CAQ         -4.2790     3.0530     3.0230 c3         1 I9H      -0.028100
     14 CAJ         -2.4700     0.9770     4.5990 c          1 I9H       0.609100
     15 OAP         -2.3840    -0.1350     5.0740 o          1 I9H      -0.623100
     16 CAO         -2.2180     2.1860     5.4630 c3         1 I9H      -0.065600
     17 OAU         -1.8990     1.7650     6.7910 oh         1 I9H      -0.506800
     18 CAE         -4.4740    -0.0230     1.9080 c3         1 I9H       0.118800
     19 NAI         -4.2840     0.0240     0.4500 nh         1 I9H      -0.113700
     20 CAN         -5.2850     0.0520    -0.4830 c2         1 I9H       0.609100
     21 NAT         -6.5480     0.0410    -0.0970 ne         1 I9H      -0.499700
     22 CAX         -7.5350    -0.1070    -1.0120 cg         1 I9H       0.303800
     23 NBA         -8.3760    -0.2240    -1.7670 n1         1 I9H      -0.448800
     24 NAS         -4.9770     0.0920    -1.8150 nu         1 I9H      -0.302600
     25 CAW         -5.8770     0.6580    -2.7240 ca         1 I9H       0.018600
     26 CAY         -6.0150     0.1160    -3.9950 ca         1 I9H      -0.153000
     27 CAZ         -6.6380     1.7590    -2.3540 ca         1 I9H      -0.165000
     28 CBC         -7.5280     2.3180    -3.2520 ca         1 I9H      -0.009000
     29 CBD         -7.6640     1.7830    -4.5190 ca         1 I9H      -0.197000
     30 CBB         -6.9080     0.6790    -4.8920 ca         1 I9H       0.172100
     31 OBE         -7.0440     0.1520    -6.1370 os         1 I9H      -0.317900
     32 CBF         -7.9840     0.7830    -7.0100 c3         1 I9H       0.585700
     33 FBH         -9.2600     0.7320    -6.4380 f          1 I9H      -0.225800
     34 FBG         -7.6140     2.1180    -7.2060 f          1 I9H      -0.225800
     35 HAG         -0.5420     0.0000    -0.9380 ha         1 I9H       0.126000
     36 HAL          1.9210    -0.0000    -0.9380 ha         1 I9H       0.120500
     37 HAM          1.9420    -0.0000     3.3360 ha         1 I9H       0.120500
     38 HAH         -0.5170    -0.0000     3.3610 ha         1 I9H       0.126000
     39 HAB         -2.8550    -0.9570     3.0130 h1         1 I9H       0.097700
     40 HAE1        -4.9700    -0.9640     2.1170 h1         1 I9H       0.054200
     41 HAE2        -5.0280     0.8050     2.3330 h1         1 I9H       0.054200
     42 HAK1        -2.0340     3.0640     3.0260 h1         1 I9H       0.035200
     43 HAK2        -2.9210     2.4060     1.6440 h1         1 I9H       0.035200
     44 HAQ1        -4.8110     2.3860     3.6920 hc         1 I9H       0.015700
     45 HAQ2        -4.1730     4.0240     3.4900 hc         1 I9H       0.015700
     46 HAQ3        -4.8340     3.1550     2.0990 hc         1 I9H       0.015700
     47 HAO1        -2.1980     3.0750     4.8430 h1         1 I9H       0.085700
     48 HAO2        -3.0090     2.2760     6.1970 h1         1 I9H       0.085700
     49 HAU         -2.0330     2.4830     7.3880 ho         1 I9H       0.386000
     50 HAS         -4.2320    -0.4720    -2.1740 hn         1 I9H       0.303800
     51 HAY         -5.4460    -0.7630    -4.2740 ha         1 I9H       0.121000
     52 HAZ         -6.5560     2.1620    -1.3520 ha         1 I9H       0.123000
     53 HBC         -8.1220     3.1770    -2.9620 ha         1 I9H       0.107000
     54 HBD         -8.3620     2.2230    -5.2210 ha         1 I9H       0.135000
     55 HBF         -7.7860     0.4830    -8.0320 h3         1 I9H       0.066700
@<TRIPOS>BOND
     1     1     2 ar  
     2     1     7 ar  
     3     1    35 1   
     4     2     3 ar  
     5     2    36 1   
     6     3     4 1   
     7     3     5 ar  
     8     5     6 ar  
     9     5    37 1   
    10     6     7 ar  
    11     6    38 1   
    12     7     8 1   
    13     8     9 2   
    14     8    10 1   
    15     9    19 1   
    16    10    11 1   
    17    10    18 1   
    18    10    39 1   
    19    11    12 1   
    20    11    14 1   
    21    12    13 1   
    22    12    42 1   
    23    12    43 1   
    24    13    44 1   
    25    13    45 1   
    26    13    46 1   
    27    14    15 2   
    28    14    16 1   
    29    16    17 1   
    30    16    47 1   
    31    16    48 1   
    32    17    49 1   
    33    18    19 1   
    34    18    40 1   
    35    18    41 1   
    36    19    20 1   
    37    20    21 2   
    38    20    24 1   
    39    21    22 1   
    40    22    23 3   
    41    24    25 1   
    42    24    50 1   
    43    25    26 ar  
    44    25    27 ar  
    45    26    30 ar  
    46    26    51 1   
    47    27    28 ar  
    48    27    52 1   
    49    28    29 ar  
    50    28    53 1   
    51    29    30 ar  
    52    29    54 1   
    53    30    31 1   
    54    31    32 1   
    55    32    33 1   
    56    32    34 1   
    57    32    55 1   
@<TRIPOS>SUBSTRUCTURE
     1 I9H         1 TEMP              0 ****  ****    0 ROOT
