@<TRIPOS>MOLECULE
molecule
   55    57     1     0     0
SMALL
bcc


@<TRIPOS>ATOM
      1 CAG          0.0000     0.0000     0.0000 ca         1 I9H      -0.088500
      2 CAL          1.3800     0.0000     0.0000 ca         1 I9H      -0.127000
      3 CAR          2.0760     0.0000     1.1970 ca         1 I9H       0.044400
      4 Cl1          3.8120     0.0000     1.1860 cl         1 I9H      -0.098400
      5 CAM          1.3930    -0.0000     2.4020 ca         1 I9H      -0.127000
      6 CAH          0.0140     0.0000     2.4170 ca         1 I9H      -0.088500
      7 CAC         -0.6940     0.0000     1.2120 ca         1 I9H      -0.117900
      8 CAA         -2.1690     0.0010     1.2200 ce         1 I9H       0.385900
      9 NAD         -2.9190     0.0330     0.1730 n2         1 I9H      -0.399400
     10 CAB         -3.0340    -0.0430     2.4590 c3         1 I9H       0.027400
     11 NAF         -2.7900     1.1330     3.2990 n          1 I9H      -0.493800
     12 CAK         -2.8930     2.4760     2.7250 c3         1 I9H       0.092000
     13 CAQ         -4.2790     3.0530     3.0230 c3         1 I9H      -0.124100
     14 CAJ         -2.4700     0.9770     4.5990 c          1 I9H       0.659100
     15 OAP         -2.3840    -0.1350     5.0740 o          1 I9H      -0.569100
     16 CAO         -2.2180     2.1860     5.4630 c3         1 I9H       0.070400
     17 OAU         -1.8990     1.7650     6.7910 oh         1 I9H      -0.574800
     18 CAE         -4.4740    -0.0230     1.9080 c3         1 I9H       0.196800
     19 NAI         -4.2840     0.0240     0.4500 nh         1 I9H      -0.477700
     20 CAN         -5.2850     0.0520    -0.4830 c2         1 I9H       0.941100
     21 NAT         -6.5480     0.0410    -0.0970 ne         1 I9H      -0.619700
     22 CAX         -7.5350    -0.1070    -1.0120 cg         1 I9H       0.346800
     23 NBA         -8.3500    -0.2300    -1.7950 n1         1 I9H      -0.415800
     24 NAS         -4.9770     0.0920    -1.8150 nu         1 I9H      -0.746600
     25 CAW         -5.8770     0.6580    -2.7240 ca         1 I9H       0.145600
     26 CAY         -6.0150     0.1160    -3.9950 ca         1 I9H      -0.146000
     27 CAZ         -6.6380     1.7590    -2.3540 ca         1 I9H      -0.178000
     28 CBC         -7.5280     2.3180    -3.2520 ca         1 I9H      -0.063000
     29 CBD         -7.6640     1.7830    -4.5190 ca         1 I9H      -0.194000
     30 CBB         -6.9080     0.6790    -4.8920 ca         1 I9H       0.145100
     31 OBE         -7.0440     0.1520    -6.1370 os         1 I9H      -0.344900
     32 CBF         -7.9840     0.7830    -7.0100 c3         1 I9H       0.580700
     33 FBH         -9.2600     0.7320    -6.4380 f          1 I9H      -0.239300
     34 FBG         -7.6140     2.1180    -7.2060 f          1 I9H      -0.239300
     35 HAG         -0.5420    -0.0000    -0.9380 ha         1 I9H       0.154500
     36 HAL          1.9210    -0.0000    -0.9380 ha         1 I9H       0.152000
     37 HAM          1.9420    -0.0000     3.3360 ha         1 I9H       0.152000
     38 HAH         -0.5180    -0.0000     3.3610 ha         1 I9H       0.154500
     39 HAB         -2.8550    -0.9570     3.0130 h1         1 I9H       0.127700
     40 HAE1        -4.9260    -1.0030     2.0030 h1         1 I9H       0.087700
     41 HAE2        -5.0640     0.7230     2.4250 h1         1 I9H       0.087700
     42 HAK1        -2.6110     2.4450     1.6790 h1         1 I9H       0.057700
     43 HAK2        -2.2310     3.1480     3.2570 h1         1 I9H       0.057700
     44 HAQ1        -4.1780     4.0710     3.3790 hc         1 I9H       0.048367
     45 HAQ2        -4.8760     3.0440     2.1190 hc         1 I9H       0.048367
     46 HAQ3        -4.7640     2.4510     3.7820 hc         1 I9H       0.048367
     47 HAO1        -3.1230     2.7790     5.5270 h1         1 I9H       0.042700
     48 HAO2        -1.4260     2.7830     5.0270 h1         1 I9H       0.042700
     49 HAU         -1.7820     2.5220     7.3410 ho         1 I9H       0.408000
     50 HAS         -4.0210     0.0490    -2.1100 hn         1 I9H       0.453800
     51 HAY         -5.3760    -0.7000    -4.3080 ha         1 I9H       0.150000
     52 HAZ         -6.4850     2.2230    -1.3880 ha         1 I9H       0.144000
     53 HBC         -8.1220     3.1770    -2.9620 ha         1 I9H       0.141000
     54 HBD         -8.3620     2.2230    -5.2210 ha         1 I9H       0.155000
     55 HBF         -7.8940     0.3610    -8.0030 h3         1 I9H       0.123700
@<TRIPOS>BOND
     1     1     2 ar
     2     1     7 ar
     3     2     3 ar
     4     3     4 1
     5     3     5 ar
     6     5     6 ar
     7     6     7 ar
     8     7     8 1
     9     8     9 2
    10     8    10 1
    11     9    19 1
    12    10    11 1
    13    10    18 1
    14    11    12 1
    15    11    14 1
    16    12    13 1
    17    14    15 2
    18    14    16 1
    19    16    17 1
    20    18    19 1
    21    19    20 1
    22    20    21 2
    23    20    24 1
    24    21    22 1
    25    22    23 3
    26    24    25 1
    27    25    26 ar
    28    25    27 ar
    29    26    30 ar
    30    27    28 ar
    31    28    29 ar
    32    29    30 ar
    33    30    31 1
    34    31    32 1
    35    32    33 1
    36    32    34 1
    37     1    35 1
    38     2    36 1
    39     5    37 1
    40     6    38 1
    41    10    39 1
    42    18    40 1
    43    18    41 1
    44    12    42 1
    45    12    43 1
    46    13    44 1
    47    13    45 1
    48    13    46 1
    49    16    47 1
    50    16    48 1
    51    17    49 1
    52    24    50 1
    53    26    51 1
    54    27    52 1
    55    28    53 1
    56    29    54 1
    57    32    55 1
@<TRIPOS>SUBSTRUCTURE
     1 I9H         1 TEMP              0 ****  ****    0 ROOT
