@<TRIPOS>MOLECULE
molecule
   56    61     1     0     0
SMALL
bcc


@<TRIPOS>ATOM
      1 C            0.0000     0.0000     0.0000 ca         1 IA       -0.077000
      2 C1           1.3790    -0.0010     2.4020 ca         1 IA       -0.121900
      3 C2           1.3840     0.0000     0.0000 ca         1 IA       -0.131000
      4 C3           2.0770     0.0000     1.1920 ca         1 IA       -0.066000
      5 C4          -0.6980    -0.0010     1.1950 ca         1 IA        0.047900
      6 C5          -0.0150    -0.0080     2.3960 ca         1 IA       -0.084000
      7 C6           2.1160    -0.0030     3.6840 cc         1 IA        0.496400
      8 C7           2.7050    -0.4490     5.7680 ca         1 IA       -0.108200
      9 C8           3.6160     0.4580     5.1920 ca         1 IA        0.119400
     10 C9           4.6970     0.9280     5.9480 ca         1 IA       -0.068000
     11 C10          4.8650     0.5100     7.2340 ca         1 IA       -0.132000
     12 C11          3.9620    -0.3900     7.8130 ca         1 IA       -0.127900
     13 C12          2.8840    -0.8740     7.0740 ca         1 IA       -0.064000
     14 N1           1.7650    -0.7230     4.7930 na         1 IA       -0.251300
     15 N2           3.2040     0.6870     3.9290 nd         1 IA       -0.592100
     16 C13          4.1560    -0.8330     9.2090 cc         1 IA        0.517400
     17 C14          5.1190    -1.5000    11.0890 ca         1 IA       -0.086200
     18 C15          3.7260    -1.4160    11.2660 ca         1 IA        0.107400
     19 C16          3.1670    -1.7370    12.5070 ca         1 IA       -0.038000
     20 C17          3.9730    -2.1310    13.5360 ca         1 IA       -0.193000
     21 C18          5.3540    -2.2160    13.3650 ca         1 IA        0.026600
     22 C19          5.9260    -1.8960    12.1450 ca         1 IA       -0.110000
     23 N3           5.3650    -1.1280     9.7820 na         1 IA       -0.255300
     24 N4           3.1970    -1.0050    10.0860 nd         1 IA       -0.592100
     25 N6           6.1630    -2.6210    14.4300 nh         1 IA       -0.533000
     26 N7           6.7180    -4.6800    16.3710 nx         1 IA       -0.657400
     27 C20          6.7510    -3.9110    14.0470 c3         1 IA        0.113800
     28 C21          7.5850    -4.4610    15.2040 c3         1 IA        0.100800
     29 C22          6.0800    -3.4110    16.7480 c3         1 IA        0.100800
     30 C23          5.2690    -2.8770    15.5650 c3         1 IA        0.113800
     31 C24          7.5240    -5.1750    17.4940 c3         1 IA        0.089100
     32 I           -2.7930    -0.0020     1.1830 i          1 IA       -0.149900
     33 H           -0.5390     0.0030    -0.9400 ha         1 IA        0.150000
     34 H2           1.9240     0.0010    -0.9390 ha         1 IA        0.147000
     35 H3           3.1600     0.0030     1.1900 ha         1 IA        0.155000
     36 H5          -0.5620    -0.0090     3.3310 ha         1 IA        0.143000
     37 H9           5.4020     1.6240     5.5100 ha         1 IA        0.154000
     38 H10          5.7010     0.8820     7.8140 ha         1 IA        0.134000
     39 H12          2.1850    -1.5700     7.5210 ha         1 IA        0.148000
     40 HN1          1.0680    -1.4390     4.8330 hn         1 IA        0.311700
     41 H16          2.0950    -1.6750    12.6510 ha         1 IA        0.158000
     42 H17          3.5350    -2.3830    14.4940 ha         1 IA        0.130000
     43 H19          7.0000    -1.9630    12.0140 ha         1 IA        0.135000
     44 HN3          6.2390    -1.2120     9.3010 hn         1 IA        0.313700
     45 HN7          6.0130    -5.3510    16.1400 hn         1 IA        0.447800
     46 H201         7.3870    -3.7720    13.1810 h1         1 IA        0.083950
     47 H202         5.9590    -4.6110    13.8110 h1         1 IA        0.083950
     48 H211         8.3600    -3.7490    15.4600 hx         1 IA        0.109700
     49 H212         8.0340    -5.4010    14.9090 hx         1 IA        0.109700
     50 H221         5.4210    -3.5760    17.5910 hx         1 IA        0.109700
     51 H222         6.8430    -2.6900    17.0150 hx         1 IA        0.109700
     52 H231         4.5260    -3.6120    15.2790 h1         1 IA        0.083950
     53 H232         4.7800    -1.9550    15.8530 h1         1 IA        0.083950
     54 H241         7.9960    -6.1100    17.2160 hx         1 IA        0.101033
     55 H242         8.2860    -4.4460    17.7410 hx         1 IA        0.101033
     56 H243         6.8860    -5.3350    18.3540 hx         1 IA        0.101033
@<TRIPOS>BOND
     1     1     3 ar
     2     1     5 ar
     3     1    33 1
     4     2     4 ar
     5     2     6 ar
     6     2     7 1
     7     3     4 ar
     8     3    34 1
     9     4    35 1
    10     5     6 ar
    11     5    32 1
    12     6    36 1
    13     7    14 1
    14     7    15 2
    15     8     9 ar
    16     8    13 ar
    17     8    14 1
    18     9    10 ar
    19     9    15 1
    20    10    11 ar
    21    10    37 1
    22    11    12 ar
    23    11    38 1
    24    12    13 ar
    25    12    16 1
    26    13    39 1
    27    14    40 1
    28    16    23 1
    29    16    24 2
    30    17    18 ar
    31    17    22 ar
    32    17    23 1
    33    18    19 ar
    34    18    24 1
    35    19    20 ar
    36    19    41 1
    37    20    21 ar
    38    20    42 1
    39    21    22 ar
    40    21    25 1
    41    22    43 1
    42    23    44 1
    43    25    27 1
    44    25    30 1
    45    26    28 1
    46    26    29 1
    47    26    31 1
    48    26    45 1
    49    27    28 1
    50    27    46 1
    51    27    47 1
    52    28    48 1
    53    28    49 1
    54    29    30 1
    55    29    50 1
    56    29    51 1
    57    30    52 1
    58    30    53 1
    59    31    54 1
    60    31    55 1
    61    31    56 1
@<TRIPOS>SUBSTRUCTURE
     1 IA          1 TEMP              0 ****  ****    0 ROOT
