@<TRIPOS>MOLECULE
molecule
   21    22     1     0     0
SMALL
bcc


@<TRIPOS>ATOM
      1 Cl18         0.0000     0.0000     0.0000 cl         1 IA2      -0.039400
      2 C10          1.7360     0.0000     0.0000 cc         1 IA2       0.005100
      3 C9           2.5260     0.0000     1.0980 cd         1 IA2      -0.023600
      4 Cl17         1.9870    -0.0030     2.7480 cl         1 IA2      -0.054400
      5 C8           3.8630     0.0010     0.6630 cd         1 IA2       0.002400
      6 Cl16         5.2730    -0.0000     1.6750 cl         1 IA2      -0.049400
      7 C7           3.8470     0.0020    -0.7000 cc         1 IA2      -0.046300
      8 C4           5.0310     0.0030    -1.5840 ca         1 IA2      -0.034000
      9 C5           5.2910     1.0990    -2.4070 ca         1 IA2      -0.085000
     10 C6           6.3990     1.0950    -3.2310 ca         1 IA2       0.011400
     11 Cl13         6.7200     2.4600    -4.2550 cl         1 IA2      -0.088400
     12 C3           5.9010    -1.0940    -1.5960 ca         1 IA2       0.157100
     13 C2           7.0090    -1.0840    -2.4280 ca         1 IA2      -0.029600
     14 N1           2.5340    -0.0050    -1.1070 na         1 IA2      -0.144100
     15 Cl14         8.0910    -2.4420    -2.4460 cl         1 IA2      -0.081400
     16 C1           7.2540     0.0060    -3.2430 ca         1 IA2      -0.083000
     17 O12          5.6600    -2.1640    -0.7930 oh         1 IA2      -0.485100
     18 H1           2.2170    -0.0060    -2.0560 hn         1 IA2       0.315700
     19 H5           4.6580     1.9770    -2.3560 ha         1 IA2       0.158000
     20 H12          5.6250    -2.9480    -1.3150 ho         1 IA2       0.431000
     21 HA           8.1220     0.0090    -3.8920 ha         1 IA2       0.163000
@<TRIPOS>BOND
     1     1     2 1
     2     2     3 2
     3     2    14 1
     4     3     4 1
     5     3     5 1
     6     5     6 1
     7     5     7 2
     8     7     8 1
     9     7    14 1
    10     8    12 ar
    11     8     9 ar
    12    12    13 ar
    13    12    17 1
    14    13    15 1
    15    13    16 ar
    16     9    10 ar
    17    10    11 1
    18    10    16 ar
    19    14    18 1
    20     9    19 1
    21    17    20 1
    22    16    21 1
@<TRIPOS>SUBSTRUCTURE
     1 IA2         1 TEMP              0 ****  ****    0 ROOT
