@<TRIPOS>MOLECULE
IA2
   21    22     1     0     0
SMALL
bcc


@<TRIPOS>ATOM
      1 CL18        0.4350   -1.3110    0.3900 cl        1 IA2     -0.016400
      2 C10         1.9050   -0.5180    0.2570 cc        1 IA2     -0.015900
      3 C9          2.4320    0.4920    1.0880 cd        1 IA2     -0.041600
      4 CL17        1.6980    1.1510    2.4280 cl        1 IA2     -0.022400
      5 C8          3.7200    0.8390    0.5560 cd        1 IA2     -0.036600
      6 CL16        4.7540    1.9690    1.2150 cl        1 IA2     -0.033400
      7 C7          3.9390    0.0360   -0.5880 cc        1 IA2     -0.039300
      8 C4          5.0820    0.0140   -1.4830 ca        1 IA2     -0.028000
      9 C5          5.7070    1.2200   -1.8210 ca        1 IA2     -0.068000
     10 C6          6.8310    1.2290   -2.6510 ca        1 IA2     -0.009600
     11 CL13        7.5750    2.7050   -3.0380 cl        1 IA2     -0.073400
     12 C3          5.5890   -1.1910   -2.0230 ca        1 IA2      0.143100
     13 C2          6.7240   -1.1680   -2.8570 ca        1 IA2     -0.062600
     14 N1          2.8120   -0.7710   -0.7670 na        1 IA2     -0.138100
     15 CL14        7.3600   -2.6100   -3.4970 cl        1 IA2     -0.079400
     16 C1          7.3490    0.0410   -3.1690 ca        1 IA2     -0.075000
     17 O12         4.9190   -2.3500   -1.7160 oh        1 IA2     -0.505100
     18 H1          2.7580   -1.5160   -1.4190 hn        1 IA2      0.322700
     19 H5          5.3060    2.1670   -1.4240 ha        1 IA2      0.171000
     20 H12         5.4540   -3.1050   -2.0130 ho        1 IA2      0.442000
     21 HA          8.2380    0.0530   -3.8190 ha        1 IA2      0.167000
@<TRIPOS>BOND
     1    1    2 1   
     2    2    3 2   
     3    2   14 1   
     4    3    4 1   
     5    3    5 1   
     6    5    6 1   
     7    5    7 2   
     8    7    8 1   
     9    7   14 1   
    10    8    9 ar  
    11    8   12 ar  
    12    9   10 ar  
    13    9   19 1   
    14   10   11 1   
    15   10   16 ar  
    16   12   13 ar  
    17   12   17 1   
    18   13   15 1   
    19   13   16 ar  
    20   14   18 1   
    21   16   21 1   
    22   17   20 1   
@<TRIPOS>SUBSTRUCTURE
     1 IA2         1 TEMP              0 ****  ****    0 ROOT
