@<TRIPOS>MOLECULE
IA7
   38    40     1     0     0
SMALL
bcc


@<TRIPOS>ATOM
      1 N4          -1.3030     0.0210    -2.2130 n1         1 IA7      -0.392800
      2 C11         -0.7260     0.0010    -1.2340 cg         1 IA7       0.244800
      3 C8           0.0000     0.0000     0.0000 ca         1 IA7      -0.261300
      4 C7           1.4030     0.0000     0.0000 ca         1 IA7       0.201600
      5 N5           2.1160    -0.0010    -1.1810 nv         1 IA7      -0.460200
      6 C9          -0.6870     0.0070     1.2330 ca         1 IA7       0.593200
      7 N3          -2.0690     0.0130     1.2370 nv         1 IA7      -0.550500
      8 N1          -0.0400     0.0070     2.3830 nb         1 IA7      -0.633000
      9 C10          1.2940     0.0020     2.4400 ca         1 IA7       0.683300
     10 N2           1.9420     0.0020     3.6120 nb         1 IA7      -0.593000
     11 C4           3.2550    -0.0030     3.6530 ca         1 IA7       0.635300
     12 C1           3.9320    -0.0030     4.9990 c3         1 IA7      -0.119300
     13 C3           2.8720     0.0040     6.1030 c3         1 IA7      -0.002767
     14 C2           4.8000    -1.2550     5.1330 c3         1 IA7      -0.002767
     15 C            4.8100     1.2430     5.1280 c3         1 IA7      -0.002767
     16 C6           2.0600     0.0000     1.2480 ca         1 IA7      -0.378600
     17 C5           3.4680    -0.0000     1.3510 ca         1 IA7       0.437300
     18 N            4.0090    -0.0090     2.5690 nb         1 IA7      -0.616000
     19 C12          4.3180    -0.0010     0.1450 cc         1 IA7       0.402400
     20 S            5.3330    -1.3370    -0.3900 ss         1 IA7      -0.199300
     21 C14          5.8430    -0.4190    -1.7410 cc         1 IA7      -0.119400
     22 C13          5.2470     0.7790    -1.7090 cd         1 IA7       0.304200
     23 N6           4.4340     0.9850    -0.7010 nd         1 IA7      -0.600000
     24 H51N         2.8560     0.5810    -1.5220 hn         1 IA7       0.283300
     25 H52N         1.6630    -0.2370    -2.0410 hn         1 IA7       0.283300
     26 H31N        -2.3310    -0.5530     0.4540 hn         1 IA7       0.268300
     27 H32N        -2.7570     0.6900     1.5010 hn         1 IA7       0.268300
     28 H31C         2.6330     1.0500     5.9540 hc         1 IA7       0.015144
     29 H32C         2.1390    -0.7730     5.9240 hc         1 IA7       0.015144
     30 H33C         3.3720     0.0260     7.0640 hc         1 IA7       0.015144
     31 H21C         4.1510    -2.0740     4.8490 hc         1 IA7       0.015144
     32 H22C         5.2130    -1.5330     6.0960 hc         1 IA7       0.015144
     33 H23C         5.5130    -1.4380     4.3390 hc         1 IA7       0.015144
     34 HC1          4.9900     1.6410     4.1360 hc         1 IA7       0.015144
     35 HC2          4.3070     1.9320     5.7950 hc         1 IA7       0.015144
     36 HC3          5.6040     0.8690     5.7640 hc         1 IA7       0.015144
     37 H14          6.6990    -0.2810    -2.3900 h4         1 IA7       0.174000
     38 H13          5.2790     1.7280    -2.2300 h4         1 IA7       0.018100
@<TRIPOS>BOND
     1     1     2 3   
     2     2     3 1   
     3     3     4 ar  
     4     3     6 ar  
     5     4     5 1   
     6     4    16 ar  
     7     5    24 1   
     8     5    25 1   
     9     6     7 1   
    10     6     8 ar  
    11     7    26 1   
    12     7    27 1   
    13     8     9 ar  
    14     9    10 ar  
    15     9    16 ar  
    16    10    11 ar  
    17    11    12 1   
    18    11    18 ar  
    19    12    13 1   
    20    12    14 1   
    21    12    15 1   
    22    13    28 1   
    23    13    29 1   
    24    13    30 1   
    25    14    31 1   
    26    14    32 1   
    27    14    33 1   
    28    15    34 1   
    29    15    35 1   
    30    15    36 1   
    31    16    17 ar  
    32    17    18 ar  
    33    17    19 1   
    34    19    20 1   
    35    19    23 2   
    36    20    21 1   
    37    21    22 2   
    38    21    37 1   
    39    22    23 1   
    40    22    38 1   
@<TRIPOS>SUBSTRUCTURE
     1 IA7         1 TEMP              0 ****  ****    0 ROOT
