@<TRIPOS>MOLECULE
IA9
   48    50     1     0     0
SMALL
bcc


@<TRIPOS>ATOM
      1 ClG          0.0000     0.0000     0.0000 cl         1 IA9       0.065600
      2 CAX          1.7360     0.0000     0.0000 ca         1 IA9       0.026400
      3 CAS          2.4270     0.0000     1.1940 ca         1 IA9      -0.126300
      4 CAA          1.6750     0.0000     2.4990 c3         1 IA9       0.055200
      5 CAT          3.8130    -0.0010     1.1950 ca         1 IA9       0.141900
      6 FAF          4.4860    -0.0020     2.3660 f          1 IA9      -0.120900
      7 CAH          4.5120    -0.0010    -0.0030 ca         1 IA9      -0.140000
      8 CAJ          3.8340    -0.0010    -1.2020 ca         1 IA9      -0.055000
      9 CAW          2.4360    -0.0060    -1.2100 ca         1 IA9      -0.174600
     10 CAR          1.7020    -0.0060    -2.4910 c          1 IA9       0.583700
     11 OAC          0.4860    -0.0110    -2.4950 o          1 IA9      -0.625100
     12 NAQ          2.3810     0.0000    -3.6560 ns         1 IA9      -0.018100
     13 CAV          1.6900    -0.1160    -4.8690 ca         1 IA9      -0.079400
     14 CAL          0.4480    -0.7340    -4.9050 ca         1 IA9      -0.027000
     15 CAU         -0.2310    -0.8480    -6.1040 ca         1 IA9      -0.429200
     16 NBB         -1.5560    -1.5070    -6.1400 no         1 IA9       1.047200
     17 OAE         -2.0450    -1.9480    -5.1170 o          1 IA9      -0.447500
     18 OAD         -2.1570    -1.6080    -7.1950 o          1 IA9      -0.447500
     19 CAI          0.3220    -0.3470    -7.2680 ca         1 IA9      -0.024000
     20 CAK          1.5590     0.2700    -7.2410 ca         1 IA9      -0.134000
     21 CAY          2.2460     0.3930    -6.0420 ca         1 IA9       0.024600
     22 NBA          3.4950     1.0220    -6.0110 nh         1 IA9      -0.422000
     23 CAO          4.4570     0.3250    -6.8760 c3         1 IA9       0.148300
     24 CAM          5.8280     0.9950    -6.7540 c3         1 IA9       0.154800
     25 NAZ          5.7140     2.4100    -7.1300 n3         1 IA9      -0.548600
     26 CAB          7.0260     3.0710    -7.0970 c3         1 IA9       0.190100
     27 CAN          4.7520     3.1070    -6.2640 c3         1 IA9       0.154800
     28 CAP          3.3810     2.4370    -6.3880 c3         1 IA9       0.148300
     29 H1           0.8660     0.7190     2.4500 hc         1 IA9       0.021700
     30 H2           1.2700    -0.9880     2.6830 hc         1 IA9       0.021700
     31 H3           2.3490     0.2690     3.3040 hc         1 IA9       0.021700
     32 H4           5.5960     0.0010     0.0040 ha         1 IA9       0.123000
     33 H5           4.3820    -0.0030    -2.1360 ha         1 IA9       0.108000
     34 H6           3.3800     0.0450    -3.6520 hn         1 IA9       0.188500
     35 H7           0.0420    -1.1840    -4.0080 ha         1 IA9       0.180000
     36 H8          -0.2150    -0.4410    -8.2050 ha         1 IA9       0.134000
     37 H9           1.9880     0.6630    -8.1540 ha         1 IA9       0.125000
     38 H10          4.1210     0.3780    -7.9050 h1         1 IA9       0.021950
     39 H11          4.5340    -0.7110    -6.5690 h1         1 IA9       0.021950
     40 H12          6.1740     0.9210    -5.7300 h1         1 IA9       0.015450
     41 H13          6.5300     0.5020    -7.4150 h1         1 IA9       0.015450
     42 H15          6.9100     4.1160    -7.3560 h1         1 IA9       0.002367
     43 H16          7.4460     2.9890    -6.1020 h1         1 IA9       0.002367
     44 H17          7.6880     2.5940    -7.8100 h1         1 IA9       0.002367
     45 H18          5.0890     3.0530    -5.2360 h1         1 IA9       0.015450
     46 H19          4.6760     4.1430    -6.5710 h1         1 IA9       0.015450
     47 H20          3.0350     2.5110    -7.4120 h1         1 IA9       0.021950
     48 H21          2.6790     2.9300    -5.7270 h1         1 IA9       0.021950
@<TRIPOS>BOND
     1     1     2 1   
     2     2     3 ar  
     3     2     9 ar  
     4     3     4 1   
     5     3     5 ar  
     6     4    29 1   
     7     4    30 1   
     8     4    31 1   
     9     5     6 1   
    10     5     7 ar  
    11     7     8 ar  
    12     7    32 1   
    13     8     9 ar  
    14     8    33 1   
    15     9    10 1   
    16    10    11 2   
    17    10    12 1   
    18    12    13 1   
    19    12    34 1   
    20    13    14 ar  
    21    13    21 ar  
    22    14    15 ar  
    23    14    35 1   
    24    15    16 1   
    25    15    19 ar  
    26    16    17 1   
    27    16    18 1   
    28    19    20 ar  
    29    19    36 1   
    30    20    21 ar  
    31    20    37 1   
    32    21    22 1   
    33    22    23 1   
    34    22    28 1   
    35    23    24 1   
    36    23    38 1   
    37    23    39 1   
    38    24    25 1   
    39    24    40 1   
    40    24    41 1   
    41    25    26 1   
    42    25    27 1   
    43    26    42 1   
    44    26    43 1   
    45    26    44 1   
    46    27    28 1   
    47    27    45 1   
    48    27    46 1   
    49    28    47 1   
    50    28    48 1   
@<TRIPOS>SUBSTRUCTURE
     1 IA9         1 TEMP              0 ****  ****    0 ROOT
