@<TRIPOS>MOLECULE
molecule
   48    50     1     0     0
SMALL
bcc


@<TRIPOS>ATOM
      1 ClG          0.0000     0.0000     0.0000 cl         1 IA9      -0.038400
      2 CAX          1.7360     0.0000     0.0000 ca         1 IA9       0.100400
      3 CAS          2.4270     0.0000     1.1940 ca         1 IA9      -0.124300
      4 CAA          1.6750     0.0000     2.4990 c3         1 IA9      -0.050800
      5 CAT          3.8130    -0.0010     1.1950 ca         1 IA9       0.167900
      6 FAF          4.4860    -0.0020     2.3660 f          1 IA9      -0.127900
      7 CAH          4.5120    -0.0010    -0.0030 ca         1 IA9      -0.175000
      8 CAJ          3.8340    -0.0010    -1.2020 ca         1 IA9      -0.076000
      9 CAW          2.4360    -0.0060    -1.2100 ca         1 IA9      -0.161600
     10 CAR          1.7020    -0.0060    -2.4910 c          1 IA9       0.670700
     11 OAC          0.4860    -0.0110    -2.4950 o          1 IA9      -0.571100
     12 NAQ          2.3810     0.0000    -3.6560 ns         1 IA9      -0.459100
     13 CAV          1.6900    -0.1160    -4.8690 ca         1 IA9       0.078600
     14 CAL          0.4480    -0.7340    -4.9050 ca         1 IA9      -0.081000
     15 CAU         -0.2310    -0.8480    -6.1040 ca         1 IA9      -0.141200
     16 NBB         -1.5560    -1.5070    -6.1400 no         1 IA9       0.295200
     17 OAE         -2.0450    -1.9480    -5.1170 o          1 IA9      -0.203000
     18 OAD         -2.1570    -1.6080    -7.1950 o          1 IA9      -0.203000
     19 CAI          0.3220    -0.3470    -7.2680 ca         1 IA9      -0.087000
     20 CAK          1.5590     0.2700    -7.2410 ca         1 IA9      -0.151000
     21 CAY          2.2460     0.3930    -6.0420 ca         1 IA9       0.081600
     22 NBA          3.4950     1.0220    -6.0110 nh         1 IA9      -0.633000
     23 CAO          4.4570     0.3250    -6.8760 c3         1 IA9       0.166800
     24 CAM          5.8280     0.9950    -6.7540 c3         1 IA9       0.162300
     25 NAZ          5.7140     2.4100    -7.1300 n3         1 IA9      -0.734600
     26 CAB          7.0260     3.0710    -7.0970 c3         1 IA9       0.152100
     27 CAN          4.7520     3.1070    -6.2640 c3         1 IA9       0.162300
     28 CAP          3.3810     2.4370    -6.3880 c3         1 IA9       0.166800
     29 H1           0.8660     0.7190     2.4500 hc         1 IA9       0.058367
     30 H2           1.2700    -0.9880     2.6830 hc         1 IA9       0.058367
     31 H3           2.3490     0.2690     3.3040 hc         1 IA9       0.058367
     32 H4           5.5960     0.0010     0.0040 ha         1 IA9       0.153000
     33 H5           4.3820    -0.0030    -2.1360 ha         1 IA9       0.139000
     34 H6           3.3800     0.0450    -3.6520 hn         1 IA9       0.342500
     35 H7           0.0420    -1.1840    -4.0080 ha         1 IA9       0.205000
     36 H8          -0.2150    -0.4410    -8.2050 ha         1 IA9       0.166000
     37 H9           1.9880     0.6630    -8.1540 ha         1 IA9       0.153000
     38 H10          4.1210     0.3780    -7.9050 h1         1 IA9       0.050200
     39 H11          4.5340    -0.7110    -6.5690 h1         1 IA9       0.050200
     40 H12          6.1740     0.9210    -5.7300 h1         1 IA9       0.043200
     41 H13          6.5300     0.5020    -7.4150 h1         1 IA9       0.043200
     42 H15          6.9100     4.1160    -7.3560 h1         1 IA9       0.034700
     43 H16          7.4460     2.9890    -6.1020 h1         1 IA9       0.034700
     44 H17          7.6880     2.5940    -7.8100 h1         1 IA9       0.034700
     45 H18          5.0890     3.0530    -5.2360 h1         1 IA9       0.043200
     46 H19          4.6760     4.1430    -6.5710 h1         1 IA9       0.043200
     47 H20          3.0350     2.5110    -7.4120 h1         1 IA9       0.050200
     48 H21          2.6790     2.9300    -5.7270 h1         1 IA9       0.050200
@<TRIPOS>BOND
     1    17    16 1
     2    18    16 1
     3    16    15 1
     4    11    10 2
     5    15    14 ar
     6    15    19 ar
     7    14    13 ar
     8     8     7 ar
     9     8     9 ar
    10    10     9 1
    11    10    12 1
    12     7     5 ar
    13     9     2 ar
    14     5     6 1
    15     5     3 ar
    16     2     3 ar
    17     2     1 1
    18    19    20 ar
    19     3     4 1
    20    13    12 1
    21    13    21 ar
    22    20    21 ar
    23    21    22 1
    24    22    23 1
    25    22    28 1
    26    23    24 1
    27    24    25 1
    28    28    27 1
    29    25    27 1
    30    25    26 1
    31     4    29 1
    32     4    30 1
    33     4    31 1
    34     7    32 1
    35     8    33 1
    36    12    34 1
    37    14    35 1
    38    19    36 1
    39    20    37 1
    40    23    38 1
    41    23    39 1
    42    24    40 1
    43    24    41 1
    44    26    42 1
    45    26    43 1
    46    26    44 1
    47    27    45 1
    48    27    46 1
    49    28    47 1
    50    28    48 1
@<TRIPOS>SUBSTRUCTURE
     1 IA9         1 TEMP              0 ****  ****    0 ROOT
