@<TRIPOS>MOLECULE
IAA
   37    40     1     0     0
SMALL
bcc


@<TRIPOS>ATOM
      1 O4           0.0000     0.0000     0.0000 o          1 IAA      -0.881800
      2 C18          1.3420     0.0000     0.0000 c          1 IAA       0.975600
      3 O3           1.9460     0.0000     1.0470 o          1 IAA      -0.881800
      4 C17          2.0960     0.0000    -1.3040 c3         1 IAA       0.086400
      5 O2           3.5010     0.0000    -1.0420 os         1 IAA      -0.130300
      6 N3           4.1530     0.0000    -2.3000 n2         1 IAA      -0.342200
      7 C10          5.4550    -0.0000    -2.3600 cc         1 IAA       0.386900
      8 C9           6.3210    -0.0060    -3.5680 cc         1 IAA       0.117000
      9 C8           5.8890    -0.0090    -4.8940 cd         1 IAA      -0.166200
     10 C7           6.6970    -0.1840    -6.1150 c          1 IAA       0.724700
     11 O1           7.9040    -0.3590    -6.1620 o          1 IAA      -0.539100
     12 N1           5.8650    -0.1150    -7.1670 nc         1 IAA      -0.615100
     13 C1           4.6210     0.0790    -6.8190 cd         1 IAA       0.506600
     14 C2           3.3460     0.2220    -7.6270 c3         1 IAA      -0.007500
     15 C3           2.0610     0.4420    -6.8610 c2         1 IAA      -0.135200
     16 C4           2.0970     0.5010    -5.5240 ce         1 IAA      -0.111000
     17 C5           3.2930     0.3670    -4.8010 ce         1 IAA      -0.042000
     18 C6           4.5100     0.1570    -5.4050 cd         1 IAA      -0.242600
     19 N2           7.5950    -0.0000    -3.1490 nc         1 IAA      -0.482300
     20 C11          7.7080     0.0010    -1.8480 cd         1 IAA       0.438600
     21 C16          8.9150     0.0010    -0.9320 c3         1 IAA       0.002500
     22 C15          8.6570     0.0020     0.5590 c2         1 IAA      -0.125200
     23 C14          7.3950     0.0020     1.0030 cf         1 IAA      -0.122000
     24 C13          6.2930     0.0000     0.1280 cf         1 IAA       0.021000
     25 C12          6.4270     0.0010    -1.2370 cc         1 IAA      -0.344200
     26 H171         1.8350     0.8850    -1.8730 h1         1 IAA       0.000700
     27 H172         1.8350    -0.8840    -1.8730 h1         1 IAA       0.000700
     28 H21          3.2280    -0.6770    -8.2190 hc         1 IAA       0.036700
     29 H22          3.4750     1.0590    -8.3030 hc         1 IAA       0.036700
     30 H3           1.1210     0.5500    -7.3890 ha         1 IAA       0.107000
     31 H4           1.1720     0.6590    -4.9820 ha         1 IAA       0.115000
     32 H5           3.2550     0.4240    -3.7200 ha         1 IAA       0.182000
     33 H161         9.5060     0.8790    -1.1650 hc         1 IAA       0.035200
     34 H162         9.5060    -0.8770    -1.1640 hc         1 IAA       0.035200
     35 H15          9.4840     0.0030     1.2580 ha         1 IAA       0.104000
     36 H14          7.2160     0.0030     2.0710 ha         1 IAA       0.108000
     37 H13          5.2950     0.0000     0.5510 ha         1 IAA       0.146000
@<TRIPOS>BOND
     1     1     2 1   
     2     2     3 1   
     3     2     4 1   
     4     4     5 1   
     5     4    26 1   
     6     4    27 1   
     7     5     6 1   
     8     6     7 2   
     9     7     8 1   
    10     7    25 1   
    11     8     9 2   
    12     8    19 1   
    13     9    10 1   
    14     9    18 1   
    15    10    11 2   
    16    10    12 1   
    17    12    13 2   
    18    13    14 1   
    19    13    18 1   
    20    14    15 1   
    21    14    28 1   
    22    14    29 1   
    23    15    16 2   
    24    15    30 1   
    25    16    17 1   
    26    16    31 1   
    27    17    18 2   
    28    17    32 1   
    29    19    20 2   
    30    20    21 1   
    31    20    25 1   
    32    21    22 1   
    33    21    33 1   
    34    21    34 1   
    35    22    23 2   
    36    22    35 1   
    37    23    24 1   
    38    23    36 1   
    39    24    25 2   
    40    24    37 1   
@<TRIPOS>SUBSTRUCTURE
     1 IAA         1 TEMP              0 ****  ****    0 ROOT
