@<TRIPOS>MOLECULE
molecule
   21    22     1     0     0
SMALL
bcc


@<TRIPOS>ATOM
      1 C            0.0000     0.0000     0.0000 ca         1 IAC      -0.042200
      2 C1           1.4060     0.0000     0.0000 ca         1 IAC      -0.079800
      3 C2           2.1040     0.0000     1.2090 ca         1 IAC      -0.051000
      4 C3           1.4150    -0.0020     2.3900 ca         1 IAC      -0.186000
      5 C4           0.0270    -0.0020     2.3960 ca         1 IAC      -0.124000
      6 C5          -0.6810    -0.0070     1.2140 ca         1 IAC      -0.163000
      7 C7           1.8100     0.0010    -1.4080 cc         1 IAC      -0.058400
      8 C8           0.6850     0.0010    -2.1400 cd         1 IAC      -0.139100
      9 C17          3.2220     0.0030    -1.9370 c3         1 IAC      -0.125200
     10 C18          3.7370    -1.4120    -1.9970 c          1 IAC       0.890600
     11 N           -0.4070     0.0010    -1.3150 na         1 IAC      -0.196400
     12 O2           4.9800    -1.6560    -2.4390 o          1 IAC      -0.846800
     13 O3           3.0300    -2.3280    -1.6470 o          1 IAC      -0.846800
     14 H2           3.1870     0.0000     1.2110 ha         1 IAC       0.138000
     15 H3           1.9570     0.0010     3.3280 ha         1 IAC       0.111000
     16 H4          -0.5050    -0.0040     3.3390 ha         1 IAC       0.107000
     17 H5          -1.7650    -0.0070     1.2290 ha         1 IAC       0.104000
     18 H8           0.6470     0.0020    -3.2220 h4         1 IAC       0.158000
     19 H171         3.2360     0.4340    -2.9300 hc         1 IAC       0.036700
     20 H172         3.8530     0.5890    -1.2800 hc         1 IAC       0.036700
     21 HN          -1.3600     0.0010    -1.6220 hn         1 IAC       0.274700
@<TRIPOS>BOND
     1     1    11 1
     2     1     2 ar
     3     1     6 ar
     4     2     7 1
     5     2     3 ar
     6     3     4 ar
     7     3    14 1
     8     4     5 ar
     9     4    15 1
    10     5     6 ar
    11     5    16 1
    12     6    17 1
    13     7     9 1
    14     7     8 2
    15     8    11 1
    16     8    18 1
    17     9    10 1
    18     9    19 1
    19     9    20 1
    20    10    13 1
    21    10    12 1
    22    11    21 1
@<TRIPOS>SUBSTRUCTURE
     1 IAC         1 TEMP              0 ****  ****    0 ROOT
