@<TRIPOS>MOLECULE
IAC
   21    22     1     0     0
SMALL
bcc


@<TRIPOS>ATOM
      1 C           0.0280   -0.1470    0.1400 ca        1 IAC     -0.065200
      2 C1          1.4730   -0.0090    0.1480 ca        1 IAC     -0.083800
      3 C2          2.1180    0.3170    1.3370 ca        1 IAC     -0.085000
      4 C3          1.3630    0.4970    2.4910 ca        1 IAC     -0.178000
      5 C4         -0.0330    0.3580    2.4760 ca        1 IAC     -0.138000
      6 C5         -0.7180    0.0390    1.3100 ca        1 IAC     -0.158000
      7 C7          1.9210   -0.2730   -1.2100 cc        1 IAC     -0.088400
      8 C8          0.7830   -0.5470   -1.9620 cd        1 IAC     -0.100100
      9 C17         3.3030   -0.2480   -1.6970 c3        1 IAC     -0.141200
     10 C18         3.5740   -1.1630   -2.9110 c         1 IAC      0.916600
     11 N          -0.3760   -0.4150   -1.1730 na        1 IAC     -0.205400
     12 O2          4.6750   -1.7810   -2.9280 o         1 IAC     -0.849800
     13 O3          2.7180   -1.2300   -3.8420 o         1 IAC     -0.849800
     14 H2          3.2120    0.4240    1.3540 ha        1 IAC      0.132000
     15 H3          1.8640    0.7510    3.4350 ha        1 IAC      0.110000
     16 H4         -0.5960    0.5040    3.4090 ha        1 IAC      0.107000
     17 H5         -1.8100   -0.0660    1.3080 ha        1 IAC      0.113000
     18 H8          0.7480   -0.8180   -3.0270 h4        1 IAC      0.220000
     19 H171        4.0020   -0.5370   -0.8690 hc        1 IAC      0.035700
     20 H172        3.5660    0.7970   -2.0140 hc        1 IAC      0.035700
     21 HN         -1.2360   -0.8410   -1.3940 hn        1 IAC      0.271700
@<TRIPOS>BOND
     1    1    2 ar  
     2    1    6 ar  
     3    1   11 1   
     4    2    3 ar  
     5    2    7 1   
     6    3    4 ar  
     7    3   14 1   
     8    4    5 ar  
     9    4   15 1   
    10    5    6 ar  
    11    5   16 1   
    12    6   17 1   
    13    7    8 2   
    14    7    9 1   
    15    8   11 1   
    16    8   18 1   
    17    9   10 1   
    18    9   19 1   
    19    9   20 1   
    20   10   12 1   
    21   10   13 1   
    22   11   21 1   
@<TRIPOS>SUBSTRUCTURE
     1 IAC         1 TEMP              0 ****  ****    0 ROOT
