@<TRIPOS>MOLECULE
molecule
   33    34     1     0     0
SMALL
bcc


@<TRIPOS>ATOM
      1 OD2          0.0000     0.0000     0.0000 o          1 IAD      -0.869300
      2 CG           1.3380     0.0000     0.0000 c          1 IAD       0.894600
      3 OD1          2.0320     0.0000     1.1060 o          1 IAD      -0.869300
      4 CB           2.0760    -0.0530    -1.3530 c3         1 IAD      -0.154400
      5 CA           2.3520     1.4160    -1.8260 c3         1 IAD       0.036700
      6 C            2.4600     2.3820    -0.6500 c          1 IAD       0.905600
      7 O            3.6610     2.5910    -0.0820 o          1 IAD      -0.854300
      8 O1           1.4250     3.0170    -0.2820 o          1 IAD      -0.854300
      9 N            3.6430     1.4680    -2.5220 ns         1 IAD      -0.538900
     10 C11          3.9150     0.7100    -3.6730 c          1 IAD       0.640100
     11 O11          3.0640     0.0130    -4.1960 o          1 IAD      -0.651100
     12 C10          5.3070     0.8660    -4.2760 c3         1 IAD      -0.094200
     13 C3           5.4850     2.3060    -4.7640 cc         1 IAD      -0.116400
     14 C2           6.5410     3.1740    -4.4160 cd         1 IAD      -0.125100
     15 N1           6.3180     4.3630    -5.1040 na         1 IAD      -0.191400
     16 C9           4.6600     2.9530    -5.7100 ca         1 IAD      -0.076800
     17 C4           3.5460     2.5240    -6.4310 ca         1 IAD      -0.050000
     18 C8           5.1770     4.2370    -5.8840 ca         1 IAD      -0.040200
     19 C7           4.5590     5.1200    -6.7750 ca         1 IAD      -0.162000
     20 C6           3.4410     4.7110    -7.4780 ca         1 IAD      -0.119000
     21 C5           2.9430     3.4280    -7.2970 ca         1 IAD      -0.176000
     22 HB1          1.4600    -0.5620    -2.0840 hc         1 IAD       0.019700
     23 HB2          3.0150    -0.5810    -1.2350 hc         1 IAD       0.019700
     24 HA           1.5630     1.7390    -2.4950 h1         1 IAD       0.043700
     25 H            4.3590     2.0680    -2.1630 hn         1 IAD       0.328500
     26 H1           6.0550     0.6430    -3.5240 hc         1 IAD       0.051700
     27 H2A          5.4190     0.1840    -5.1110 hc         1 IAD       0.051700
     28 H2           7.4580     2.8910    -3.9130 h4         1 IAD       0.169000
     29 HN1          6.9010     5.1750    -5.0600 hn         1 IAD       0.282700
     30 H4           3.1460     1.5260    -6.2990 ha         1 IAD       0.167000
     31 H7           4.9530     6.1200    -6.9120 ha         1 IAD       0.106000
     32 H6           2.9490     5.3930    -8.1600 ha         1 IAD       0.111000
     33 H5           2.0660     3.1210    -7.8540 ha         1 IAD       0.116000
@<TRIPOS>BOND
     1     1     2 1
     2     2     3 1
     3     2     4 1
     4     4     5 1
     5     4    22 1
     6     4    23 1
     7     5     6 1
     8     5     9 1
     9     5    24 1
    10     6     7 1
    11     6     8 1
    12     9    10 1
    13     9    25 1
    14    10    11 2
    15    10    12 1
    16    12    13 1
    17    12    26 1
    18    12    27 1
    19    13    14 2
    20    13    16 1
    21    14    15 1
    22    14    28 1
    23    15    18 1
    24    15    29 1
    25    16    17 ar
    26    16    18 ar
    27    17    21 ar
    28    17    30 1
    29    18    19 ar
    30    19    20 ar
    31    19    31 1
    32    20    21 ar
    33    20    32 1
    34    21    33 1
@<TRIPOS>SUBSTRUCTURE
     1 IAD         1 TEMP              0 ****  ****    0 ROOT
