@<TRIPOS>MOLECULE
molecule
   28    29     1     0     0
SMALL
bcc


@<TRIPOS>ATOM
      1 O3           0.0000     0.0000     0.0000 o          1 IAG      -0.847300
      2 C12          1.3420     0.0000     0.0000 c          1 IAG       0.883600
      3 O2           1.9470     0.0000     1.0450 o          1 IAG      -0.847300
      4 C11          2.0950    -0.0000    -1.3050 c3         1 IAG      -0.003000
      5 N2           3.5350    -0.0010    -1.0390 ns         1 IAG      -0.554900
      6 C10          4.4100    -0.0010    -2.0640 c          1 IAG       0.637100
      7 O1           4.0060    -0.0010    -3.2070 o          1 IAG      -0.634100
      8 C9           5.8920    -0.0010    -1.7890 c3         1 IAG      -0.088200
      9 C2           6.6440    -0.0010    -3.0940 cc         1 IAG      -0.109400
     10 C1           7.0440     1.0780    -3.7860 cd         1 IAG      -0.097100
     11 N1           7.7000     0.6880    -4.9210 na         1 IAG      -0.188400
     12 C7           7.0840    -1.1780    -3.8460 ca         1 IAG      -0.082800
     13 C8           7.7390    -0.6870    -4.9900 ca         1 IAG      -0.039200
     14 C6           8.2710    -1.5830    -5.9100 ca         1 IAG      -0.153000
     15 C5           8.1460    -2.9380    -5.6940 ca         1 IAG      -0.117000
     16 C4           7.4950    -3.4190    -4.5670 ca         1 IAG      -0.168000
     17 C3           6.9650    -2.5550    -3.6500 ca         1 IAG      -0.065000
     18 H111         1.8330    -0.8840    -1.8730 h1         1 IAG       0.045200
     19 H112         1.8340     0.8850    -1.8730 h1         1 IAG       0.045200
     20 HN2          3.8690    -0.0030    -0.0960 hn         1 IAG       0.329500
     21 HC91         6.1530     0.8840    -1.2210 hc         1 IAG       0.057200
     22 HC92         6.1540    -0.8850    -1.2210 hc         1 IAG       0.057200
     23 HC1          6.8730     2.1050    -3.4880 h4         1 IAG       0.164000
     24 HN1          8.0930     1.3090    -5.6000 hn         1 IAG       0.286700
     25 HC6          8.7810    -1.2180    -6.7930 ha         1 IAG       0.114000
     26 HC5          8.5610    -3.6360    -6.4110 ha         1 IAG       0.117000
     27 HC4          7.4060    -4.4880    -4.4130 ha         1 IAG       0.121000
     28 HC3          6.4580    -2.9370    -2.7730 ha         1 IAG       0.135000
@<TRIPOS>BOND
     1     1     2 1
     2     2     3 1
     3     2     4 1
     4     4     5 1
     5     4    18 1
     6     4    19 1
     7     5     6 1
     8     5    20 1
     9     6     7 2
    10     6     8 1
    11     8     9 1
    12     8    21 1
    13     8    22 1
    14     9    10 2
    15     9    12 1
    16    10    11 1
    17    10    23 1
    18    11    13 1
    19    11    24 1
    20    12    13 ar
    21    12    17 ar
    22    13    14 ar
    23    14    15 ar
    24    14    25 1
    25    15    16 ar
    26    15    26 1
    27    16    17 ar
    28    16    27 1
    29    17    28 1
@<TRIPOS>SUBSTRUCTURE
     1 IAG         1 TEMP              0 ****  ****    0 ROOT
