@<TRIPOS>MOLECULE
IAN
   26    25     1     0     0
SMALL
bcc


@<TRIPOS>ATOM
      1 C1          0.3010    0.2080   -0.4180 c2        1 IAN     -0.084000
      2 O1         -3.0020    2.7680   -2.6920 oh        1 IAN     -0.350000
      3 P1         -0.7660    2.4540   -1.4620 p5        1 IAN      2.048000
      4 C2          1.7580    0.3690   -0.7430 c3        1 IAN     -0.239000
      5 C3          2.7570    0.3060    0.2680 c1        1 IAN     -0.102000
      6 O3         -0.2790    0.3360   -2.7550 os        1 IAN     -0.249000
      7 C4         -0.7120   -0.1960    3.0460 c1        1 IAN     -0.095000
      8 O4          0.6260    2.9680   -1.5270 o         1 IAN     -0.855500
      9 C5         -0.4640   -0.8960    1.8430 c2        1 IAN     -0.227000
     10 C6         -0.0960   -0.3540    0.6950 c1        1 IAN     -0.033000
     11 C7         -1.5990    2.7990   -2.8970 c3        1 IAN     -0.696000
     12 C8         -0.6750    0.6860   -1.4430 c3        1 IAN     -0.544000
     13 H2          2.0040   -0.2820   -1.6260 hc        1 IAN      0.209500
     14 H3          1.8600    1.4670   -1.1450 hc        1 IAN      0.209500
     15 H4          2.4370    0.4030    1.3160 ha        1 IAN      0.039000
     16 H5         -0.7110    0.9040    2.9940 ha        1 IAN      0.048000
     17 H6         -0.5780   -1.9980    1.8880 ha        1 IAN      0.131000
     18 H7         -1.3200    3.8120   -3.2900 h1        1 IAN      0.099500
     19 H7A        -3.1570    3.0420   -1.7710 ho        1 IAN      0.222000
     20 H7B        -1.4090    2.0700   -3.7250 h1        1 IAN      0.099500
     21 H8         -1.6960    0.2720   -1.2250 h1        1 IAN      0.109000
     22 H9         -1.4780   -1.3650   -2.9620 h1        1 IAN      0.063333
     23 H9A         0.2310   -1.6580   -2.3790 h1        1 IAN      0.063333
     24 H9B        -0.0660   -1.1340   -4.1160 h1        1 IAN      0.063333
     25 C9         -0.4110   -1.0420   -3.0560 c3        1 IAN     -0.076000
     26 O41        -1.6850    2.8220   -0.3550 o         1 IAN     -0.855500
@<TRIPOS>BOND
     1    1    4 1   
     2    1   10 1   
     3    1   12 1   
     4    2   11 1   
     5    2   19 1   
     6    3    8 1   
     7    3   11 1   
     8    3   12 1   
     9    3   26 1   
    10    4    5 1   
    11    4   13 1   
    12    4   14 1   
    13    5   15 1   
    14    6   12 1   
    15    6   25 1   
    16    7    9 1   
    17    7   16 1   
    18    9   10 1   
    19    9   17 1   
    20   11   18 1   
    21   11   20 1   
    22   12   21 1   
    23   22   25 1   
    24   23   25 1   
    25   24   25 1   
@<TRIPOS>SUBSTRUCTURE
     1 IAN         1 TEMP              0 ****  ****    0 ROOT
