@<TRIPOS>MOLECULE
molecule
   26    26     1     0     0
SMALL
bcc


@<TRIPOS>ATOM
      1 C1           0.0000     0.0000     0.0000 ca         1 IAN      -0.023300
      2 O1          -1.8550     1.7320    -3.2240 os         1 IAN      -0.617200
      3 P1          -1.0490     1.7260    -1.8290 p5         1 IAN       1.146600
      4 C2           1.3820     0.0000     0.0000 ca         1 IAN      -0.091500
      5 C3           2.0730     0.0000     1.1980 ca         1 IAN      -0.145500
      6 O3           0.0160    -0.6700    -2.3020 os         1 IAN      -0.417600
      7 C4           1.3820     0.0020     2.3940 ca         1 IAN      -0.150000
      8 O4           0.3600     2.4790    -2.0210 o          1 IAN      -0.797000
      9 C5          -0.0010     0.0030     2.3940 ca         1 IAN      -0.145500
     10 C6          -0.6920     0.0010     1.1970 ca         1 IAN      -0.091500
     11 C7          -2.3290     2.9290    -3.8440 c3         1 IAN       0.217700
     12 C8          -0.7540     0.0060    -1.3060 c3         1 IAN       0.027200
     13 H2           1.9240    -0.0010    -0.9380 ha         1 IAN       0.142500
     14 H3           3.1560    -0.0000     1.1980 ha         1 IAN       0.109000
     15 H4           1.9230     0.0030     3.3330 ha         1 IAN       0.103000
     16 H5          -0.5430     0.0040     3.3320 ha         1 IAN       0.109000
     17 H6          -1.7750     0.0020     1.1960 ha         1 IAN       0.142500
     18 H7          -2.8960     2.6750    -4.7320 h1         1 IAN       0.014033
     19 H7A         -2.9640     3.4680    -3.1510 h1         1 IAN       0.014033
     20 H7B         -1.4860     3.5510    -4.1200 h1         1 IAN       0.014033
     21 H8          -1.7030    -0.5010    -1.1770 h1         1 IAN       0.032700
     22 H9          -0.3790    -1.6660    -4.0620 h1         1 IAN       0.028033
     23 H9A         -1.6850    -0.6330    -3.4650 h1         1 IAN       0.028033
     24 H9B         -0.2480     0.0930    -4.1980 h1         1 IAN       0.028033
     25 C9          -0.6120    -0.7220    -3.5840 c3         1 IAN       0.118700
     26 O41         -1.8460     2.4260    -0.7970 o          1 IAN      -0.797000
@<TRIPOS>BOND
     1     1    10 ar
     2     1    12 1
     3     2    11 1
     4     3     2 1
     5     3    12 1
     6     4     1 ar
     7     4    13 1
     8     5     4 ar
     9     5     7 ar
    10     5    14 1
    11     6    25 1
    12     7     9 ar
    13     7    15 1
    14     8     3 1
    15     9    10 ar
    16     9    16 1
    17    10    17 1
    18    11    18 1
    19    11    19 1
    20    11    20 1
    21    12     6 1
    22    12    21 1
    23    25    22 1
    24    25    23 1
    25    25    24 1
    26     3    26 1
@<TRIPOS>SUBSTRUCTURE
     1 IAN         1 TEMP              0 ****  ****    0 ROOT
