@<TRIPOS>MOLECULE
molecule
   57    60     1     0     0
SMALL
bcc


@<TRIPOS>ATOM
      1 C4           0.0000     0.0000     0.0000 ca         1 IAQ      -0.108000
      2 C5           1.3820     0.0000     0.0000 ca         1 IAQ      -0.143000
      3 C6           2.0780     0.0000     1.1950 ca         1 IAQ      -0.116000
      4 C13          1.8020     1.8400     8.1990 ca         1 IAQ      -0.090000
      5 C15          3.6740     2.4910     6.8260 ca         1 IAQ       0.162900
      6 C21         -0.9560     0.5760     8.2210 cc         1 IAQ       0.385700
      7 C24          4.6000     1.9840     9.9810 c3         1 IAQ       0.096300
      8 C26          4.2640     4.6580    10.7950 ce         1 IAQ      -0.240200
      9 C28          3.7940     5.7190    11.4440 c2         1 IAQ      -0.177200
     10 O27          2.8420     4.8990     8.9640 o          1 IAQ      -0.618100
     11 C25          3.5660     4.1580     9.6010 c          1 IAQ       0.767300
     12 C29          2.4440     6.2870    11.0830 c3         1 IAQ       0.251000
     13 N30          1.6280     6.4180    12.2970 n3         1 IAQ      -0.732600
     14 C32          2.1960     7.4200    13.2080 c3         1 IAQ       0.146100
     15 C31          0.2340     6.7410    11.9610 c3         1 IAQ       0.146100
     16 C14          3.0640     2.4010     8.0770 ca         1 IAQ       0.014600
     17 F22          4.9030     3.0390     6.7150 f          1 IAQ      -0.121900
     18 C16          3.0270     2.0260     5.7030 ca         1 IAQ      -0.215300
     19 C11          1.7510     1.4560     5.8120 ca         1 IAQ       0.479600
     20 N10          1.1200     0.9990     4.6990 nd         1 IAQ      -0.786000
     21 C12          1.1420     1.3680     7.0740 ca         1 IAQ      -0.137600
     22 N17         -0.1240     0.8040     7.1910 na         1 IAQ      -0.021200
     23 N20         -2.0500     0.0070     7.7770 nd         1 IAQ      -0.579300
     24 C19         -1.9700    -0.1560     6.4550 cd         1 IAQ       0.035600
     25 C18         -0.7550     0.3410     6.0500 cc         1 IAQ      -0.281600
     26 C9          -0.0770     0.4580     4.7610 cc         1 IAQ       0.764200
     27 C2           0.0030     0.0010     2.3980 ca         1 IAQ       0.145600
     28 C3          -0.6910     0.0010     1.1960 ca         1 IAQ      -0.119300
     29 C1           1.3930     0.0000     2.3940 ca         1 IAQ      -0.133000
     30 H4          -0.5410    -0.0000    -0.9380 ha         1 IAQ       0.133000
     31 H5           1.9220    -0.0010    -0.9390 ha         1 IAQ       0.130000
     32 H6           3.1610    -0.0000     1.1900 ha         1 IAQ       0.133000
     33 H7          -2.5590    -0.9100     1.6600 hc         1 IAQ       0.042700
     34 H7A         -2.5600     0.8560     1.7520 hc         1 IAQ       0.042700
     35 H7B         -2.5600     0.0540     0.1760 hc         1 IAQ       0.042700
     36 H13          1.3320     1.7710     9.1720 ha         1 IAQ       0.149000
     37 H21         -0.7550     0.8250     9.2560 h5         1 IAQ       0.082800
     38 H24          4.7280     1.0530     9.4410 h1         1 IAQ       0.051700
     39 H24A         4.1690     1.7810    10.9540 h1         1 IAQ       0.051700
     40 H24B         5.5630     2.4650    10.1050 h1         1 IAQ       0.051700
     41 H26          3.4290     3.9740    10.8950 ha         1 IAQ       0.036000
     42 H28          3.6970     6.4280    10.6300 ha         1 IAQ       0.133000
     43 H29          1.9490     5.6230    10.3850 h1         1 IAQ       0.069700
     44 H29A         2.5720     7.2610    10.6270 h1         1 IAQ       0.069700
     45 H32          1.5730     7.4990    14.0910 h1         1 IAQ       0.035867
     46 H32A         3.1960     7.1200    13.4960 h1         1 IAQ       0.035867
     47 H32B         2.2370     8.3800    12.7080 h1         1 IAQ       0.035867
     48 H31          0.2080     7.6360    11.3500 h1         1 IAQ       0.035867
     49 H31A        -0.3270     6.9100    12.8720 h1         1 IAQ       0.035867
     50 H31B        -0.2060     5.9170    11.4130 h1         1 IAQ       0.035867
     51 H16          3.5050     2.0990     4.7340 ha         1 IAQ       0.173000
     52 H19         -2.7250    -0.5990     5.8170 h4         1 IAQ       0.182000
     53 HN8         -1.6270    -0.3560     3.6510 hn         1 IAQ       0.461800
     54 H1           1.9390     0.0000     3.3300 ha         1 IAQ       0.178000
     55 C7          -2.1980     0.0000     1.1960 c3         1 IAQ      -0.049800
     56 N8          -0.6930     0.0020     3.6100 nu         1 IAQ      -0.737300
     57 N23          3.7280     2.8770     9.2130 n          1 IAQ      -0.415000
@<TRIPOS>BOND
     1     1     2 ar
     2     1    28 ar
     3     2     3 ar
     4     3    29 ar
     5    55    28 1
     6     4    16 ar
     7     4    21 ar
     8     5    16 ar
     9     5    17 1
    10     5    18 ar
    11     6    22 1
    12     6    23 2
    13     7    57 1
    14     8     9 2
    15     8    11 1
    16     9    12 1
    17    10    11 2
    18    11    57 1
    19    12    13 1
    20    13    14 1
    21    13    15 1
    22    57    16 1
    23    18    19 ar
    24    19    20 1
    25    19    21 ar
    26    20    26 2
    27    21    22 1
    28    22    25 1
    29    23    24 1
    30    24    25 2
    31    25    26 1
    32    26    56 1
    33    56    27 1
    34    27    28 ar
    35    27    29 ar
    36     1    30 1
    37     2    31 1
    38     3    32 1
    39    55    33 1
    40    55    34 1
    41    55    35 1
    42     4    36 1
    43     6    37 1
    44     7    38 1
    45     7    39 1
    46     7    40 1
    47     8    41 1
    48     9    42 1
    49    12    43 1
    50    12    44 1
    51    14    45 1
    52    14    46 1
    53    14    47 1
    54    15    48 1
    55    15    49 1
    56    15    50 1
    57    18    51 1
    58    24    52 1
    59    56    53 1
    60    29    54 1
@<TRIPOS>SUBSTRUCTURE
     1 IAQ         1 TEMP              0 ****  ****    0 ROOT
