@<TRIPOS>MOLECULE
IAQ
   57    60     1     0     0
SMALL
bcc


@<TRIPOS>ATOM
      1 C4           0.0000     0.0000     0.0000 ca         1 IAQ      -0.082000
      2 C5           1.3820     0.0000     0.0000 ca         1 IAQ      -0.112000
      3 C6           2.0780     0.0000     1.1950 ca         1 IAQ      -0.085000
      4 C13          1.8020     1.8400     8.1990 ca         1 IAQ      -0.038000
      5 C15          3.6740     2.4910     6.8260 ca         1 IAQ       0.148900
      6 C21         -0.9560     0.5760     8.2210 cc         1 IAQ       0.167700
      7 C24          4.6000     1.9840     9.9810 c3         1 IAQ       0.076300
      8 C26          4.2640     4.6580    10.7950 ce         1 IAQ      -0.258200
      9 C28          3.7940     5.7190    11.4440 c2         1 IAQ      -0.030200
     10 O27          2.8420     4.8990     8.9640 o          1 IAQ      -0.641100
     11 C25          3.5660     4.1580     9.6010 c          1 IAQ       0.601300
     12 C29          2.4440     6.2870    11.0830 c3         1 IAQ       0.132000
     13 N30          1.6280     6.4180    12.2970 n3         1 IAQ      -0.549600
     14 C32          2.1960     7.4200    13.2080 c3         1 IAQ       0.182600
     15 C31          0.2340     6.7410    11.9610 c3         1 IAQ       0.182600
     16 C14          3.0640     2.4010     8.0770 ca         1 IAQ      -0.112400
     17 F22          4.9030     3.0390     6.7150 f          1 IAQ      -0.119900
     18 C16          3.0270     2.0260     5.7030 ca         1 IAQ      -0.194300
     19 C11          1.7510     1.4560     5.8120 ca         1 IAQ       0.472600
     20 N10          1.1200     0.9990     4.6990 nd         1 IAQ      -0.716000
     21 C12          1.1420     1.3680     7.0740 ca         1 IAQ      -0.337600
     22 N17         -0.1240     0.8040     7.1910 na         1 IAQ       0.550800
     23 N20         -2.0500     0.0070     7.7770 nd         1 IAQ      -0.497300
     24 C19         -1.9700    -0.1560     6.4550 cd         1 IAQ       0.037600
     25 C18         -0.7550     0.3410     6.0500 cc         1 IAQ      -0.479600
     26 C9          -0.0770     0.4580     4.7610 cc         1 IAQ       0.589200
     27 C2           0.0030     0.0010     2.3980 ca         1 IAQ      -0.018400
     28 C3          -0.6910     0.0010     1.1960 ca         1 IAQ      -0.122300
     29 C1           1.3930     0.0000     2.3940 ca         1 IAQ      -0.123000
     30 H4          -0.5410    -0.0000    -0.9380 ha         1 IAQ       0.106000
     31 H5           1.9220    -0.0010    -0.9390 ha         1 IAQ       0.103000
     32 H6           3.1610    -0.0000     1.1900 ha         1 IAQ       0.103000
     33 H7          -2.5590    -0.9000     1.6790 hc         1 IAQ       0.008033
     34 H7A         -2.5600     0.0320     0.1750 hc         1 IAQ       0.008033
     35 H7B         -2.5600     0.8680     1.7340 hc         1 IAQ       0.008033
     36 H13          1.3320     1.7710     9.1720 ha         1 IAQ       0.120000
     37 H21         -0.7550     0.8250     9.2560 h5         1 IAQ       0.038800
     38 H24          4.5630     0.9890     9.5540 h1         1 IAQ       0.013033
     39 H24A         4.2850     1.9450    11.0160 h1         1 IAQ       0.013033
     40 H24B         5.6130     2.3630     9.9250 h1         1 IAQ       0.013033
     41 H26          5.2330     4.2530    11.0580 ha         1 IAQ       0.115000
     42 H28          4.3110     6.0850    12.3230 ha         1 IAQ       0.101000
     43 H29          2.5720     7.2610    10.6270 h1         1 IAQ       0.052200
     44 H29A         1.9490     5.6240    10.3840 h1         1 IAQ       0.052200
     45 H32          1.4210     7.7850    13.8710 h1         1 IAQ       0.000867
     46 H32A         2.9880     6.9680    13.7920 h1         1 IAQ       0.000867
     47 H32B         2.5970     8.2450    12.6320 h1         1 IAQ       0.000867
     48 H31          0.2000     7.6880    11.4360 h1         1 IAQ       0.000867
     49 H31A        -0.3490     6.8110    12.8710 h1         1 IAQ       0.000867
     50 H31B        -0.1750     5.9630    11.3280 h1         1 IAQ       0.000867
     51 H16          3.5050     2.0990     4.7340 ha         1 IAQ       0.140000
     52 H19         -2.7250    -0.5990     5.8170 h4         1 IAQ       0.139000
     53 HN8         -1.6260    -0.3580     3.6510 hn         1 IAQ       0.292800
     54 H1           1.9390     0.0000     3.3300 ha         1 IAQ       0.160000
     55 C7          -2.1980     0.0000     1.1960 c3         1 IAQ       0.062200
     56 N8          -0.6930     0.0020     3.6100 nu         1 IAQ      -0.250300
     57 N23          3.7280     2.8770     9.2130 n          1 IAQ      -0.032000
@<TRIPOS>BOND
     1     1     2 ar  
     2     1    28 ar  
     3     1    30 1   
     4     2     3 ar  
     5     2    31 1   
     6     3    29 ar  
     7     3    32 1   
     8     4    16 ar  
     9     4    21 ar  
    10     4    36 1   
    11     5    16 ar  
    12     5    17 1   
    13     5    18 ar  
    14     6    22 1   
    15     6    23 2   
    16     6    37 1   
    17     7    38 1   
    18     7    39 1   
    19     7    40 1   
    20     7    57 1   
    21     8     9 2   
    22     8    11 1   
    23     8    41 1   
    24     9    12 1   
    25     9    42 1   
    26    10    11 2   
    27    11    57 1   
    28    12    13 1   
    29    12    43 1   
    30    12    44 1   
    31    13    14 1   
    32    13    15 1   
    33    14    45 1   
    34    14    46 1   
    35    14    47 1   
    36    15    48 1   
    37    15    49 1   
    38    15    50 1   
    39    16    57 1   
    40    18    19 ar  
    41    18    51 1   
    42    19    20 1   
    43    19    21 ar  
    44    20    26 2   
    45    21    22 1   
    46    22    25 1   
    47    23    24 1   
    48    24    25 2   
    49    24    52 1   
    50    25    26 1   
    51    26    56 1   
    52    27    28 ar  
    53    27    29 ar  
    54    27    56 1   
    55    28    55 1   
    56    29    54 1   
    57    33    55 1   
    58    34    55 1   
    59    35    55 1   
    60    53    56 1   
@<TRIPOS>SUBSTRUCTURE
     1 IAQ         1 TEMP              0 ****  ****    0 ROOT
