@<TRIPOS>MOLECULE
molecule
   37    38     1     0     0
SMALL
bcc


@<TRIPOS>ATOM
      1 O1           0.0000     0.0000     0.0000 o          1 IAV      -0.690100
      2 C10          1.3330     0.0000     0.0000 c          1 IAV       0.614100
      3 N2           1.9920     0.0000     1.2040 ns         1 IAV      -0.486900
      4 C11          0.9690    -0.3140     2.2170 c3         1 IAV      -0.021300
      5 C12          1.2550     0.7720     3.2180 c          1 IAV       0.834600
      6 O2           0.8000     0.6390     4.4930 o          1 IAV      -0.862300
      7 O3           1.8820     1.9390     2.8090 o          1 IAV      -0.862300
      8 C13          1.1860    -1.5870     2.9830 c3         1 IAV      -0.048700
      9 C14          2.6140    -1.6480     3.5570 c3         1 IAV      -0.091100
     10 C15          1.0490    -2.8240     2.1320 c3         1 IAV      -0.091100
     11 C9           2.0070    -0.0780    -1.3490 c3         1 IAV      -0.067200
     12 C2           2.7380    -1.3460    -1.7060 cc         1 IAV      -0.119400
     13 C1           4.0950    -1.3870    -1.8260 cd         1 IAV      -0.133100
     14 N1           4.3740    -2.6760    -2.1810 na         1 IAV      -0.150400
     15 C8           3.2580    -3.3980    -2.1870 ca         1 IAV      -0.051200
     16 C6           3.0820    -4.7550    -2.4220 ca         1 IAV      -0.172000
     17 C7           2.1950    -2.5630    -1.8310 ca         1 IAV      -0.080800
     18 C3           0.8960    -3.0030    -1.7770 ca         1 IAV      -0.052000
     19 C4           0.6990    -4.3690    -2.0520 ca         1 IAV      -0.178000
     20 C5           1.7670    -5.2670    -2.3420 ca         1 IAV      -0.110000
     21 HN2          2.6880     0.6940     1.3940 hn         1 IAV       0.360500
     22 H11         -0.0370    -0.2390     1.8210 h1         1 IAV       0.130700
     23 H13          0.4740    -1.6370     3.7970 hc         1 IAV       0.079700
     24 H141         3.3260    -1.7410     2.7460 hc         1 IAV       0.025533
     25 H142         2.8180    -0.7420     4.1150 hc         1 IAV       0.025533
     26 H143         2.7030    -2.5040     4.2150 hc         1 IAV       0.025533
     27 H151         1.9250    -2.9300     1.5040 hc         1 IAV       0.025533
     28 H152         0.1670    -2.7390     1.5100 hc         1 IAV       0.025533
     29 H153         0.9570    -3.6940     2.7720 hc         1 IAV       0.025533
     30 HC91         1.2490     0.0870    -2.1040 hc         1 IAV       0.055700
     31 HC92         2.7180     0.7370    -1.4070 hc         1 IAV       0.055700
     32 HC1          4.7480    -0.5330    -1.9610 h4         1 IAV       0.172000
     33 HN1          5.2920    -3.0390    -2.3490 hn         1 IAV       0.284700
     34 HC6          3.9240    -5.4020    -2.6390 ha         1 IAV       0.118000
     35 HC3          0.0710    -2.3360    -1.5590 ha         1 IAV       0.167000
     36 HC4         -0.3070    -4.7660    -1.9930 ha         1 IAV       0.119000
     37 HC5          1.5680    -6.3120    -2.5480 ha         1 IAV       0.123000
@<TRIPOS>BOND
     1     1     2 2
     2     2     3 1
     3     2    11 1
     4     3     4 1
     5     3    21 1
     6     4     5 1
     7     4     8 1
     8     4    22 1
     9     5     6 1
    10     5     7 1
    11     8     9 1
    12     8    10 1
    13     8    23 1
    14     9    24 1
    15     9    25 1
    16     9    26 1
    17    10    27 1
    18    10    28 1
    19    10    29 1
    20    11    12 1
    21    11    30 1
    22    11    31 1
    23    12    13 2
    24    12    17 1
    25    13    14 1
    26    13    32 1
    27    14    15 1
    28    14    33 1
    29    15    16 ar
    30    15    17 ar
    31    16    20 ar
    32    16    34 1
    33    17    18 ar
    34    18    19 ar
    35    18    35 1
    36    19    20 ar
    37    19    36 1
    38    20    37 1
@<TRIPOS>SUBSTRUCTURE
     1 IAV         1 TEMP              0 ****  ****    0 ROOT
