@<TRIPOS>MOLECULE
IB
   60    65     1     0     0
SMALL
bcc


@<TRIPOS>ATOM
      1 CYT          0.0000     0.0000     0.0000 ca         1 IB        0.173100
      2 C1           1.3830     0.0010     2.4020 ca         1 IB       -0.160900
      3 C2           1.3900     0.0000     0.0000 ca         1 IB       -0.224000
      4 C3           2.0810     0.0000     1.1920 ca         1 IB       -0.002000
      5 C4          -0.6970     0.0050     1.2020 ca         1 IB        0.139900
      6 C5          -0.0130     0.0000     2.3980 ca         1 IB       -0.042000
      7 O           -0.6770     0.0010    -1.1770 os         1 IB       -0.260900
      8 C6           2.1210    -0.0000     3.6820 cc         1 IB        0.297400
      9 C7           2.7100     0.4400     5.7690 ca         1 IB       -0.291200
     10 C8           3.6250    -0.4590     5.1880 ca         1 IB        0.087400
     11 C9           4.7090    -0.9280     5.9400 ca         1 IB       -0.034000
     12 C10          4.8760    -0.5150     7.2280 ca         1 IB       -0.115000
     13 C11          3.9690     0.3790     7.8120 ca         1 IB       -0.138900
     14 C12          2.8840     0.8560     7.0770 ca         1 IB       -0.019000
     15 N1           1.7680     0.7140     4.7950 na         1 IB        0.278700
     16 N2           3.2100    -0.6900     3.9250 nd         1 IB       -0.514100
     17 C13          4.1630     0.8180     9.2100 cc         1 IB        0.316400
     18 C14          4.6320     0.7980    11.3740 ca         1 IB       -0.271200
     19 C15          4.2350     2.0880    10.9790 ca         1 IB        0.078400
     20 C16          4.1890     3.1160    11.9270 ca         1 IB        0.005000
     21 C17          4.5290     2.8630    13.2240 ca         1 IB       -0.184000
     22 C18          4.9240     1.5860    13.6190 ca         1 IB       -0.049400
     23 C19          4.9750     0.5540    12.6960 ca         1 IB       -0.065000
     24 N3           4.5790     0.0130    10.2370 na         1 IB        0.274700
     25 N4           3.9680     2.0360     9.6510 nd         1 IB       -0.511100
     26 N6           5.2680     1.3450    14.9520 nh         1 IB       -0.342000
     27 N7           6.9790     2.0750    17.1550 nx         1 IB        0.028600
     28 C20          5.1130     2.6180    15.6650 c3         1 IB        0.112300
     29 C21          5.5580     2.4520    17.1190 c3         1 IB       -0.020200
     30 C22          7.1700     0.8260    16.4080 c3         1 IB       -0.020200
     31 C23          6.7000     1.0180    14.9650 c3         1 IB        0.112300
     32 C24          7.4000     1.8830    18.5490 c3         1 IB        0.014100
     33 I           -2.7930     0.0050     1.1950 i          1 IB       -0.241900
     34 CN2          0.3020     0.0010    -2.2170 c3         1 IB        0.210700
     35 H2           1.9310    -0.0020    -0.9390 ha         1 IB        0.144000
     36 H3           3.1640     0.0000     1.1900 ha         1 IB        0.121000
     37 H5          -0.5580     0.0020     3.3350 ha         1 IB        0.111000
     38 H9           5.4160    -1.6190     5.4980 ha         1 IB        0.116000
     39 H10          5.7160    -0.8820     7.8050 ha         1 IB        0.098000
     40 H12          2.1820     1.5470     7.5270 ha         1 IB        0.116000
     41 HN1          0.9030     1.2000     4.9330 hn         1 IB        0.134700
     42 H16          3.8830     4.1120    11.6320 ha         1 IB        0.120000
     43 H17          4.4920     3.6630    13.9540 ha         1 IB        0.116000
     44 H19          5.2830    -0.4380    13.0050 ha         1 IB        0.109000
     45 HN3          4.6650    -0.9840    10.2060 hn         1 IB        0.138700
     46 HN7          7.5250     2.8010    16.7340 hn         1 IB        0.255800
     47 H201         4.0730     2.9180    15.6400 h1         1 IB        0.056450
     48 H202         5.7240     3.3740    15.1870 h1         1 IB        0.056450
     49 H211         4.9680     1.6750    17.5900 hx         1 IB        0.083200
     50 H212         5.4200     3.3880    17.6470 hx         1 IB        0.083200
     51 H221         6.5920     0.0370    16.8730 hx         1 IB        0.083200
     52 H222         8.2200     0.5620    16.4120 hx         1 IB        0.083200
     53 H231         7.2580     1.8270    14.5100 h1         1 IB        0.056450
     54 H232         6.8640     0.1020    14.4090 h1         1 IB        0.056450
     55 H241         8.4460     1.6040    18.5760 hx         1 IB        0.071700
     56 H242         7.2570     2.8050    19.1000 hx         1 IB        0.071700
     57 H243         6.8060     1.0970    19.0010 hx         1 IB        0.071700
     58 HN21         0.9210    -0.8840    -2.1310 h1         1 IB        0.007367
     59 HN22        -0.1940     0.0030    -3.1800 h1         1 IB        0.007367
     60 HN23         0.9220     0.8850    -2.1290 h1         1 IB        0.007367
@<TRIPOS>BOND
     1     1     3 ar  
     2     1     5 ar  
     3     1     7 1   
     4     2     4 ar  
     5     2     6 ar  
     6     2     8 1   
     7     3     4 ar  
     8     3    35 1   
     9     4    36 1   
    10     5     6 ar  
    11     5    33 1   
    12     6    37 1   
    13     7    34 1   
    14     8    15 1   
    15     8    16 2   
    16     9    10 ar  
    17     9    14 ar  
    18     9    15 1   
    19    10    11 ar  
    20    10    16 1   
    21    11    12 ar  
    22    11    38 1   
    23    12    13 ar  
    24    12    39 1   
    25    13    14 ar  
    26    13    17 1   
    27    14    40 1   
    28    15    41 1   
    29    17    24 1   
    30    17    25 2   
    31    18    19 ar  
    32    18    23 ar  
    33    18    24 1   
    34    19    20 ar  
    35    19    25 1   
    36    20    21 ar  
    37    20    42 1   
    38    21    22 ar  
    39    21    43 1   
    40    22    23 ar  
    41    22    26 1   
    42    23    44 1   
    43    24    45 1   
    44    26    28 1   
    45    26    31 1   
    46    27    29 1   
    47    27    30 1   
    48    27    32 1   
    49    27    46 1   
    50    28    29 1   
    51    28    47 1   
    52    28    48 1   
    53    29    49 1   
    54    29    50 1   
    55    30    31 1   
    56    30    51 1   
    57    30    52 1   
    58    31    53 1   
    59    31    54 1   
    60    32    55 1   
    61    32    56 1   
    62    32    57 1   
    63    34    58 1   
    64    34    59 1   
    65    34    60 1   
@<TRIPOS>SUBSTRUCTURE
     1 IB          1 TEMP              0 ****  ****    0 ROOT
