@<TRIPOS>MOLECULE
IB1
   39    41     1     0     0
SMALL
bcc


@<TRIPOS>ATOM
      1 C01          0.0000     0.0000     0.0000 ca         1 IB1      -0.341600
      2 C02          1.3960     0.0000     0.0000 ca         1 IB1       0.378800
      3 N03          2.0410     0.0000     1.1640 nb         1 IB1      -0.648000
      4 C04          1.3730     0.0010     2.3050 ca         1 IB1       0.690900
      5 N05          0.0480     0.0010     2.3370 nb         1 IB1      -0.662000
      6 C06         -0.6600     0.0010     1.2210 ca         1 IB1       0.476200
      7 C07          2.1490    -0.0010    -1.2790 c          1 IB1       0.556200
      8 O08          1.5540    -0.0900    -2.3350 o          1 IB1      -0.515100
      9 C09          3.6150     0.1060    -1.2690 ca         1 IB1      -0.258600
     10 C10          4.4050    -1.0460    -1.1350 ca         1 IB1       0.213400
     11 C11          5.7790    -0.9390    -1.1250 ca         1 IB1      -0.231500
     12 C12          6.3840     0.3070    -1.2490 ca         1 IB1       0.219100
     13 C13          5.6070     1.4530    -1.3830 ca         1 IB1      -0.231500
     14 C14          4.2310     1.3600    -1.4000 ca         1 IB1       0.213400
     15 F15          3.4790     2.4740    -1.5300 f          1 IB1      -0.119400
     16 O16          7.7360     0.4060    -1.2390 os         1 IB1      -0.298900
     17 N17          2.0770     0.0010     3.4990 nu         1 IB1      -0.288300
     18 C18          1.3950     0.1160     4.7090 ca         1 IB1       0.017600
     19 C19          0.2410     0.8900     4.7860 ca         1 IB1      -0.124500
     20 C20         -0.4340     1.0060     5.9800 ca         1 IB1      -0.049500
     21 C21          0.0420     0.3450     7.1160 ca         1 IB1       0.005000
     22 C22          1.2000    -0.4330     7.0360 ca         1 IB1      -0.049500
     23 C23          1.8670    -0.5490     5.8370 ca         1 IB1      -0.124500
     24 C24         -0.6580     0.4640     8.3610 cg         1 IB1       0.234800
     25 N25         -1.1970     0.5690     9.3550 n1         1 IB1      -0.386800
     26 F26          3.8190    -2.2570    -1.0130 f          1 IB1      -0.119400
     27 C27          8.2930     1.7160    -1.3700 c3         1 IB1       0.243700
     28 H1          -0.5420    -0.0000    -0.9380 ha         1 IB1       0.145000
     29 H2          -1.7430     0.0010     1.2520 h4         1 IB1      -0.010900
     30 H3           6.3910    -1.8270    -1.0220 ha         1 IB1       0.141000
     31 H4           6.0830     2.4220    -1.4790 ha         1 IB1       0.141000
     32 H5           3.0770     0.0400     3.4900 hn         1 IB1       0.297800
     33 H6          -0.1270     1.4020     3.9050 ha         1 IB1       0.125500
     34 H7          -1.3320     1.6090     6.0390 ha         1 IB1       0.113000
     35 H8           1.5700    -0.9460     7.9160 ha         1 IB1       0.113000
     36 H9           2.7630    -1.1550     5.7740 ha         1 IB1       0.125500
     37 H10          9.3720     1.6590    -1.2940 h1         1 IB1       0.002367
     38 H11          7.9080     2.3530    -0.5830 h1         1 IB1       0.002367
     39 H12          8.0210     2.1290    -2.3340 h1         1 IB1       0.002367
@<TRIPOS>BOND
     1     1     2 ar  
     2     1     6 ar  
     3     1    28 1   
     4     2     3 ar  
     5     2     7 1   
     6     3     4 ar  
     7     4     5 ar  
     8     4    17 1   
     9     5     6 ar  
    10     6    29 1   
    11     7     8 2   
    12     7     9 1   
    13     9    10 ar  
    14     9    14 ar  
    15    10    11 ar  
    16    10    26 1   
    17    11    12 ar  
    18    11    30 1   
    19    12    13 ar  
    20    12    16 1   
    21    13    14 ar  
    22    13    31 1   
    23    14    15 1   
    24    16    27 1   
    25    17    18 1   
    26    17    32 1   
    27    18    19 ar  
    28    18    23 ar  
    29    19    20 ar  
    30    19    33 1   
    31    20    21 ar  
    32    20    34 1   
    33    21    22 ar  
    34    21    24 1   
    35    22    23 ar  
    36    22    35 1   
    37    23    36 1   
    38    24    25 3   
    39    27    37 1   
    40    27    38 1   
    41    27    39 1   
@<TRIPOS>SUBSTRUCTURE
     1 IB1         1 TEMP              0 ****  ****    0 ROOT
