@<TRIPOS>MOLECULE
IB3
   35    35     1     0     0
SMALL
bcc


@<TRIPOS>ATOM
      1 C1           0.0000     0.0000     0.0000 ca         1 IB3      -0.118000
      2 C2           1.3830     0.0000     0.0000 ca         1 IB3      -0.115000
      3 C3           2.0730     0.0000     1.1980 ca         1 IB3       0.069700
      4 C4           1.3820     0.0010     2.3940 ca         1 IB3      -0.115000
      5 C5          -0.0010     0.0010     2.3940 ca         1 IB3      -0.118000
      6 C6          -0.6910     0.0050     1.1970 ca         1 IB3      -0.196300
      7 P8           4.1890     1.6600     1.6430 p5         1 IB3       0.434700
      8 O11          5.6680     1.6600     1.6440 o          1 IB3      -0.721500
      9 O10          3.6510     2.0540     3.1080 o          1 IB3      -0.721500
     10 C7           3.5810     0.0000     1.1980 c3         1 IB3      -0.015600
     11 C12          4.0900    -1.0200     2.2190 c3         1 IB3       0.043600
     12 C13          5.6200    -1.0200     2.2190 c3         1 IB3      -0.163400
     13 C14          6.1220    -2.0240     3.2240 c          1 IB3       0.616100
     14 N16          7.4470    -2.1990     3.3980 n          1 IB3      -0.067300
     15 C17          7.9350    -3.1760     4.3760 c3         1 IB3       0.083300
     16 O18          8.3670    -1.4380     2.6370 oh         1 IB3      -0.417100
     17 O15          5.3330    -2.6770     3.8760 o          1 IB3      -0.691100
     18 C19         -2.1980     0.0050     1.1960 c3         1 IB3       0.090200
     19 H1          -0.5420     0.0020    -0.9380 ha         1 IB3       0.068000
     20 H2           1.9240    -0.0020    -0.9380 ha         1 IB3       0.118000
     21 H3           1.9230    -0.0010     3.3320 ha         1 IB3       0.118000
     22 H4          -0.5420     0.0030     3.3320 ha         1 IB3       0.068000
     23 H7           3.9420    -0.2640     0.2120 hc         1 IB3       0.015700
     24 H8           3.7290    -2.0060     1.9540 hc         1 IB3      -0.005300
     25 H9           3.7280    -0.7550     3.2050 hc         1 IB3      -0.005300
     26 H10          5.9810    -0.0330     2.4830 hc         1 IB3       0.092700
     27 H11          5.9820    -1.2850     1.2330 hc         1 IB3       0.092700
     28 H12          9.0120    -3.0970     4.4570 h1         1 IB3      -0.004967
     29 H13          7.6690    -4.1750     4.0510 h1         1 IB3      -0.004967
     30 H14          7.4840    -2.9770     5.3410 h1         1 IB3      -0.004967
     31 H15          9.1490    -1.9450     2.4920 ho         1 IB3       0.362000
     32 H16         -2.5590     0.9870     0.9140 hc         1 IB3      -0.022300
     33 H17         -2.5600    -0.2410     2.1870 hc         1 IB3      -0.022300
     34 H18         -2.5590    -0.7300     0.4870 hc         1 IB3      -0.022300
     35 O9           3.6530     2.7470     0.5830 o          1 IB3      -0.721500
@<TRIPOS>BOND
     1     1     2 ar  
     2     1     6 ar  
     3     1    19 1   
     4     2     3 ar  
     5     2    20 1   
     6     3     4 ar  
     7     3    10 1   
     8     4     5 ar  
     9     4    21 1   
    10     5     6 ar  
    11     5    22 1   
    12     6    18 1   
    13     7     8 1   
    14     7     9 1   
    15     7    10 1   
    16     7    35 1   
    17    10    11 1   
    18    10    23 1   
    19    11    12 1   
    20    11    24 1   
    21    11    25 1   
    22    12    13 1   
    23    12    26 1   
    24    12    27 1   
    25    13    14 1   
    26    13    17 2   
    27    14    15 1   
    28    14    16 1   
    29    15    28 1   
    30    15    29 1   
    31    15    30 1   
    32    16    31 1   
    33    18    32 1   
    34    18    33 1   
    35    18    34 1   
@<TRIPOS>SUBSTRUCTURE
     1 IB3         1 TEMP              0 ****  ****    0 ROOT
