@<TRIPOS>MOLECULE
IB8
   71    75     1     0     0
SMALL
bcc


@<TRIPOS>ATOM
      1 C28          0.0000     0.0000     0.0000 c3         1 IB8       0.160400
      2 C30          1.4210    -2.4150    -0.1370 c3         1 IB8       0.123800
      3 N3           2.0190    -1.1980    -0.6990 n3         1 IB8      -0.514600
      4 C31          1.7630    -1.1030    -2.1430 c3         1 IB8       0.172100
      5 C25          0.1380    -5.0190    -0.5940 c3         1 IB8       0.182100
      6 N2           1.5290    -4.8620    -0.1490 n3         1 IB8      -0.545600
      7 C24          2.3280    -6.0470    -0.4900 c3         1 IB8       0.182100
      8 C22          2.0660     0.0000     1.4260 c3         1 IB8      -0.046700
      9 N1           2.1560     1.3750     1.9380 na         1 IB8       0.424600
     10 C1           3.1890     2.2530     1.7520 ca         1 IB8      -0.223200
     11 C6           4.3650     2.1580     1.0220 ca         1 IB8      -0.097000
     12 C5           5.2260     3.2620     1.0640 ca         1 IB8      -0.082600
     13 C8           6.4860     3.2160     0.3000 c          1 IB8       0.971200
     14 O2           7.3290     4.2670     0.3270 o          1 IB8      -0.886300
     15 O1           6.7650     2.2310    -0.3530 o          1 IB8      -0.886300
     16 C4           4.9240     4.4080     1.8100 ca         1 IB8      -0.077000
     17 C3           3.7690     4.5160     2.5340 ca         1 IB8      -0.115000
     18 C2           2.8870     3.4240     2.4980 ca         1 IB8      -0.105800
     19 C7           1.6320     3.2180     3.0940 cc         1 IB8      -0.121400
     20 C16          0.8980     4.1860     3.9850 c3         1 IB8       0.044500
     21 C17          1.7490     4.4880     5.2200 c3         1 IB8      -0.033900
     22 C20          1.0040     5.4720     6.1240 c3         1 IB8      -0.024900
     23 C21          0.7400     6.7690     5.3590 c3         1 IB8      -0.025400
     24 C19         -0.1110     6.4680     4.1230 c3         1 IB8      -0.024900
     25 C23          1.5340     0.0000     0.0000 c3         1 IB8       0.075500
     26 C18          0.6350     5.4840     3.2190 c3         1 IB8      -0.033900
     27 C9           1.2000     1.9830     2.7210 cd         1 IB8      -0.220300
     28 C10         -0.1050     1.3740     3.0440 ca         1 IB8       0.003200
     29 C11         -0.5380     1.2530     4.3630 ca         1 IB8      -0.084000
     30 C12         -1.7510     0.6490     4.6290 ca         1 IB8      -0.117000
     31 C13         -2.5340     0.1610     3.5980 ca         1 IB8      -0.105000
     32 C14         -2.1190     0.2860     2.2830 ca         1 IB8      -0.134000
     33 C15         -0.9180     0.9030     2.0030 ca         1 IB8       0.105100
     34 O3          -0.5130     1.1240     0.7140 os         1 IB8      -0.305900
     35 C26          2.1270    -3.6440    -0.7120 c3         1 IB8       0.145800
     36 H281        -0.3540     0.0390    -1.0230 h1         1 IB8       0.014200
     37 H282        -0.3540    -0.9100     0.4700 h1         1 IB8       0.014200
     38 H23          1.8890     0.8860    -0.5120 h1         1 IB8       0.076700
     39 H301         1.5310    -2.4070     0.9410 h1         1 IB8       0.020700
     40 H302         0.3690    -2.4510    -0.3910 h1         1 IB8       0.020700
     41 H261         3.1800    -3.6080    -0.4580 h1         1 IB8       0.020200
     42 H262         2.0170    -3.6520    -1.7900 h1         1 IB8       0.020200
     43 H311         1.8670    -0.0730    -2.4620 h1         1 IB8       0.005033
     44 H312         2.4760    -1.7200    -2.6770 h1         1 IB8       0.005033
     45 H313         0.7580    -1.4470    -2.3550 h1         1 IB8       0.005033
     46 H251        -0.5040    -4.3750    -0.0050 h1         1 IB8      -0.000967
     47 H252        -0.1680    -6.0500    -0.4660 h1         1 IB8      -0.000967
     48 H253         0.0600    -4.7460    -1.6400 h1         1 IB8      -0.000967
     49 H241         3.3330    -5.9280    -0.1030 h1         1 IB8      -0.000967
     50 H242         2.3660    -6.1590    -1.5670 h1         1 IB8      -0.000967
     51 H243         1.8730    -6.9270    -0.0510 h1         1 IB8      -0.000967
     52 H221         3.0510    -0.4510     1.4400 h1         1 IB8       0.042700
     53 H222         1.3960    -0.5720     2.0570 h1         1 IB8       0.042700
     54 H6           4.7440     1.1870     0.7290 ha         1 IB8       0.129000
     55 H4           5.6240     5.2350     1.8090 ha         1 IB8       0.129000
     56 H3           3.5440     5.4070     3.1080 ha         1 IB8       0.100000
     57 H16         -0.0450     3.7540     4.2960 hc         1 IB8       0.022700
     58 H171         2.6900     4.9260     4.9100 hc         1 IB8       0.026200
     59 H172         1.9340     3.5690     5.7630 hc         1 IB8       0.026200
     60 H181         1.5780     5.9200     2.9140 hc         1 IB8       0.026200
     61 H182         0.0310     5.2700     2.3450 hc         1 IB8       0.026200
     62 H201         1.6090     5.6870     6.9970 hc         1 IB8       0.004950
     63 H202         0.0610     5.0360     6.4300 hc         1 IB8       0.004950
     64 H211         1.6830     7.2030     5.0500 hc         1 IB8       0.008200
     65 H212         0.2100     7.4630     5.9990 hc         1 IB8       0.008200
     66 H191        -0.2950     7.3870     3.5800 hc         1 IB8       0.004950
     67 H192        -1.0520     6.0300     4.4320 hc         1 IB8       0.004950
     68 H11          0.0710     1.6330     5.1740 ha         1 IB8       0.119000
     69 H12         -2.0860     0.5450     5.6540 ha         1 IB8       0.097000
     70 H13         -3.4830    -0.3110     3.8200 ha         1 IB8       0.096000
     71 H14         -2.7360    -0.0970     1.4790 ha         1 IB8       0.107000
@<TRIPOS>BOND
     1     1    25 1   
     2     1    34 1   
     3     1    36 1   
     4     1    37 1   
     5     2     3 1   
     6     2    35 1   
     7     2    39 1   
     8     2    40 1   
     9     3     4 1   
    10     3    25 1   
    11     4    43 1   
    12     4    44 1   
    13     4    45 1   
    14     5     6 1   
    15     5    46 1   
    16     5    47 1   
    17     5    48 1   
    18     6     7 1   
    19     6    35 1   
    20     7    49 1   
    21     7    50 1   
    22     7    51 1   
    23     8     9 1   
    24     8    25 1   
    25     8    52 1   
    26     8    53 1   
    27     9    10 1   
    28     9    27 1   
    29    10    11 ar  
    30    10    18 ar  
    31    11    12 ar  
    32    11    54 1   
    33    12    13 1   
    34    12    16 ar  
    35    13    14 1   
    36    13    15 1   
    37    16    17 ar  
    38    16    55 1   
    39    17    18 ar  
    40    17    56 1   
    41    18    19 1   
    42    19    20 1   
    43    19    27 2   
    44    20    21 1   
    45    20    26 1   
    46    20    57 1   
    47    21    22 1   
    48    21    58 1   
    49    21    59 1   
    50    22    23 1   
    51    22    62 1   
    52    22    63 1   
    53    23    24 1   
    54    23    64 1   
    55    23    65 1   
    56    24    26 1   
    57    24    66 1   
    58    24    67 1   
    59    25    38 1   
    60    26    60 1   
    61    26    61 1   
    62    27    28 1   
    63    28    29 ar  
    64    28    33 ar  
    65    29    30 ar  
    66    29    68 1   
    67    30    31 ar  
    68    30    69 1   
    69    31    32 ar  
    70    31    70 1   
    71    32    33 ar  
    72    32    71 1   
    73    33    34 1   
    74    35    41 1   
    75    35    42 1   
@<TRIPOS>SUBSTRUCTURE
     1 IB8         1 TEMP              0 ****  ****    0 ROOT
