@<TRIPOS>MOLECULE
IBA
   52    53     1     0     0
SMALL
bcc


@<TRIPOS>ATOM
      1 C6           0.0000     0.0000     0.0000 ca         1 IBA      -0.069000
      2 C5           1.3970     0.0000     0.0000 ca         1 IBA      -0.224400
      3 C4           2.0880     0.0000     1.2150 ca         1 IBA       0.042600
      4 C3           1.3870     0.0010     2.4210 ca         1 IBA      -0.133000
      5 C2          -0.0090     0.0010     2.4160 ca         1 IBA      -0.018600
      6 C7          -0.7010     0.0000     1.2060 ca         1 IBA      -0.120000
      7 C1          -0.7400     0.0010     3.6720 c          1 IBA       0.952200
      8 O21          0.0850    -0.0000     4.7560 o          1 IBA      -0.866300
      9 O20         -1.9700     0.0010     3.7840 o          1 IBA      -0.866300
     10 N4           3.5010     0.0010     1.2430 nu         1 IBA      -0.452600
     11 C8           4.2510     0.0010     2.4590 c3         1 IBA       0.147500
     12 C11          4.2910     1.4240     3.0340 c3         1 IBA      -0.055400
     13 C9           5.6740    -0.5110     2.1860 c3         1 IBA      -0.055400
     14 C12          4.9590     2.4220     2.0960 c3         1 IBA       0.006900
     15 C10          5.6930    -1.9200     1.6090 c3         1 IBA       0.006900
     16 N5           2.0950    -0.0010    -1.2500 n          1 IBA      -0.020000
     17 C13          2.4440     1.1930    -2.0380 c3         1 IBA       0.000400
     18 C14          3.5680     0.6470    -2.9410 c3         1 IBA      -0.072400
     19 C15          3.1730    -0.7900    -3.2030 c3         1 IBA      -0.119400
     20 C16          2.4740    -1.1860    -1.9270 c          1 IBA       0.632500
     21 O13          2.2500    -2.3540    -1.6390 o          1 IBA      -0.572500
     22 C18          1.2760     1.6670    -2.9220 c3         1 IBA       0.202400
     23 O18          0.2500     2.1550    -2.0810 oh         1 IBA      -0.565800
     24 C17          3.0350     2.3620    -1.2320 c3         1 IBA      -0.097200
     25 N17          3.5010     3.3650    -2.1270 nz         1 IBA       0.099400
     26 H7          -1.7840     0.0000     1.2020 ha         1 IBA       0.131000
     27 H6          -0.5400    -0.0000    -0.9390 ha         1 IBA       0.093000
     28 H151         2.4950    -0.8520    -4.0450 hc         1 IBA       0.053700
     29 H152         4.0510    -1.4040    -3.3620 hc         1 IBA       0.053700
     30 H141         3.6090     1.2020    -3.8700 hc         1 IBA       0.019700
     31 H142         4.5200     0.6890    -2.4250 hc         1 IBA       0.019700
     32 H181         0.9020     0.8370    -3.5100 h1         1 IBA      -0.008300
     33 H182         1.6140     2.4580    -3.5810 h1         1 IBA      -0.008300
     34 H18         -0.4360     2.5310    -2.6060 ho         1 IBA       0.408000
     35 H171         2.2720     2.7800    -0.5880 hx         1 IBA       0.113700
     36 H172         3.8610     2.0050    -0.6290 hx         1 IBA       0.113700
     37 H11          3.9330     4.1020    -1.6060 hn         1 IBA       0.217800
     38 H12          4.1690     2.9660    -2.7560 hn         1 IBA       0.217800
     39 HN4          3.9980    -0.0000     0.3740 hn         1 IBA       0.258800
     40 H8           3.7690    -0.6560     3.1730 h1         1 IBA       0.066700
     41 H111         4.8370     1.4070     3.9700 hc         1 IBA       0.025950
     42 H112         3.2770     1.7510     3.2270 hc         1 IBA       0.025950
     43 H121         4.2660     3.2230     1.8680 hc         1 IBA      -0.003133
     44 H122         5.8410     2.8320     2.5720 hc         1 IBA      -0.003133
     45 H123         5.2440     1.9200     1.1790 hc         1 IBA      -0.003133
     46 H91          6.2300    -0.5070     3.1160 hc         1 IBA       0.025950
     47 H92          6.1580     0.1590     1.4870 hc         1 IBA       0.025950
     48 H101         4.8010    -2.4500     1.9210 hc         1 IBA      -0.003133
     49 H102         6.5690    -2.4460     1.9680 hc         1 IBA      -0.003133
     50 H103         5.7220    -1.8670     0.5270 hc         1 IBA      -0.003133
     51 H3           1.9250     0.0010     3.3610 ha         1 IBA       0.162000
     52 H173         2.7250     3.7560    -2.6230 hn         1 IBA       0.217800
@<TRIPOS>BOND
     1     1     2 ar  
     2     1     6 ar  
     3     1    27 1   
     4     2     3 ar  
     5     2    16 1   
     6     3     4 ar  
     7     3    10 1   
     8     4     5 ar  
     9     4    51 1   
    10     5     6 ar  
    11     5     7 1   
    12     6    26 1   
    13     7     8 1   
    14     7     9 1   
    15    10    11 1   
    16    10    39 1   
    17    11    12 1   
    18    11    13 1   
    19    11    40 1   
    20    12    14 1   
    21    12    41 1   
    22    12    42 1   
    23    13    15 1   
    24    13    46 1   
    25    13    47 1   
    26    14    43 1   
    27    14    44 1   
    28    14    45 1   
    29    15    48 1   
    30    15    49 1   
    31    15    50 1   
    32    16    17 1   
    33    16    20 1   
    34    17    18 1   
    35    17    22 1   
    36    17    24 1   
    37    18    19 1   
    38    18    30 1   
    39    18    31 1   
    40    19    20 1   
    41    19    28 1   
    42    19    29 1   
    43    20    21 2   
    44    22    23 1   
    45    22    32 1   
    46    22    33 1   
    47    23    34 1   
    48    24    25 1   
    49    24    35 1   
    50    24    36 1   
    51    25    37 1   
    52    25    38 1   
    53    25    52 1   
@<TRIPOS>SUBSTRUCTURE
     1 IBA         1 TEMP              0 ****  ****    0 ROOT
