@<TRIPOS>MOLECULE
molecule
   50    55     1     0     0
SMALL
bcc


@<TRIPOS>ATOM
      1 C1           0.0000     0.0000     0.0000 c3         1 IBB       0.426000
      2 C2           1.9080     0.0000     1.4170 c3         1 IBB       0.127300
      3 C3           0.6820    -0.5730     2.1710 c3         1 IBB       0.127300
      4 C4          -0.5110     1.2270    -0.7080 ca         1 IBB      -0.050300
      5 C5           0.2380     1.7940    -1.7300 ca         1 IBB      -0.116000
      6 C6          -0.2120     2.9160    -2.3880 ca         1 IBB      -0.083000
      7 C7          -1.4350     3.4900    -2.0250 ca         1 IBB       0.093400
      8 C8          -2.1890     2.9110    -0.9880 ca         1 IBB      -0.096200
      9 C9          -1.7170     1.7810    -0.3380 ca         1 IBB      -0.106000
     10 C10         -3.2410     4.6870    -1.7910 cc         1 IBB       0.472400
     11 C11         -4.8010     8.0350    -2.4540 ca         1 IBB      -0.102200
     12 C12         -6.1700     7.7140    -2.3830 ca         1 IBB       0.105400
     13 C13         -6.5590     6.3940    -2.1170 ca         1 IBB      -0.073000
     14 C14         -5.6150     5.4300    -1.9280 ca         1 IBB      -0.135000
     15 C15         -6.0260     9.8420    -2.8110 cc         1 IBB       0.479400
     16 C16         -6.4210    11.2390    -3.0880 ca         1 IBB      -0.119900
     17 C17         -7.5070    11.5080    -3.9220 ca         1 IBB      -0.084500
     18 C18         -7.8710    12.8120    -4.1780 ca         1 IBB      -0.157500
     19 C19         -7.1600    13.8580    -3.6080 ca         1 IBB       0.121100
     20 C20         -6.0750    13.5960    -2.7810 ca         1 IBB      -0.157500
     21 C21         -5.7070    12.2940    -2.5160 ca         1 IBB      -0.084500
     22 C22         -4.2510     5.7430    -1.9970 ca         1 IBB      -0.095900
     23 C23         -3.8480     7.0500    -2.2620 ca         1 IBB      -0.074000
     24 N1           1.4750     0.0000     0.0000 n7         1 IBB      -0.798700
     25 N2          -0.4530     0.0090     1.4070 n7         1 IBB      -0.798700
     26 N3          -3.3250     3.6870    -0.8610 na         1 IBB      -0.258300
     27 N4          -2.1300     4.5630    -2.4750 nd         1 IBB      -0.597100
     28 N5          -6.8590     8.8510    -2.6020 nd         1 IBB      -0.594100
     29 N6          -4.7390     9.3890    -2.7250 na         1 IBB      -0.253300
     30 O1          -7.5220    15.1420    -3.8630 oh         1 IBB      -0.520100
     31 H1          -0.3640    -0.8920    -0.4940 h2         1 IBB       0.025700
     32 H21A         2.7700    -0.6430     1.5500 h1         1 IBB       0.054200
     33 H22          2.1210     1.0090     1.7490 h1         1 IBB       0.054200
     34 H31          0.6680    -1.6550     2.1150 h1         1 IBB       0.054200
     35 H32          0.6690    -0.2310     3.1980 h1         1 IBB       0.054200
     36 H5           1.1840     1.3480    -2.0140 ha         1 IBB       0.147000
     37 H6           0.3780     3.3530    -3.1840 ha         1 IBB       0.141000
     38 H9          -2.3250     1.2990     0.4190 ha         1 IBB       0.130000
     39 H13         -7.6100     6.1400    -2.0610 ha         1 IBB       0.146000
     40 H14         -5.9220     4.4110    -1.7240 ha         1 IBB       0.131000
     41 H17         -8.0640    10.6930    -4.3680 ha         1 IBB       0.146000
     42 H18         -8.7150    13.0210    -4.8240 ha         1 IBB       0.146000
     43 H20         -5.5210    14.4160    -2.3380 ha         1 IBB       0.146000
     44 H21         -4.8610    12.0900    -1.8710 ha         1 IBB       0.146000
     45 H23         -2.7990     7.3140    -2.2110 ha         1 IBB       0.149000
     46 HN1          1.8080    -0.8290    -0.4510 hn         1 IBB       0.349800
     47 HN2         -1.2560    -0.5810     1.5020 hn         1 IBB       0.349800
     48 HN3         -4.1270     3.4680    -0.3030 hn         1 IBB       0.302700
     49 HN6         -3.9170     9.9010    -2.9780 hn         1 IBB       0.307700
     50 HO1         -7.0640    15.4530    -4.6260 ho         1 IBB       0.422000
@<TRIPOS>BOND
     1     1     4 1
     2     1    24 1
     3     1    25 1
     4     1    31 1
     5     2     3 1
     6     2    24 1
     7     2    32 1
     8     2    33 1
     9     3    25 1
    10     3    34 1
    11     3    35 1
    12     4     5 ar
    13     4     9 ar
    14     5     6 ar
    15     5    36 1
    16     6     7 ar
    17     6    37 1
    18     7     8 ar
    19     7    27 1
    20     8     9 ar
    21     8    26 1
    22     9    38 1
    23    10    22 1
    24    10    26 1
    25    10    27 2
    26    11    12 ar
    27    11    23 ar
    28    11    29 1
    29    12    13 ar
    30    12    28 1
    31    13    14 ar
    32    13    39 1
    33    14    22 ar
    34    14    40 1
    35    15    16 1
    36    15    28 2
    37    15    29 1
    38    16    17 ar
    39    16    21 ar
    40    17    18 ar
    41    17    41 1
    42    18    19 ar
    43    18    42 1
    44    19    20 ar
    45    19    30 1
    46    20    21 ar
    47    20    43 1
    48    21    44 1
    49    22    23 ar
    50    23    45 1
    51    24    46 1
    52    25    47 1
    53    26    48 1
    54    29    49 1
    55    30    50 1
@<TRIPOS>SUBSTRUCTURE
     1 IBB         1 TEMP              0 ****  ****    0 ROOT
