@<TRIPOS>MOLECULE
IBC
   31    32     1     0     0
SMALL
bcc


@<TRIPOS>ATOM
      1 O4          0.3470    0.3170   -0.1950 o         1 IBC     -0.758300
      2 C11         1.4900   -0.1570   -0.1120 c         1 IBC      0.935600
      3 O3          2.2390   -0.6430   -1.0020 o         1 IBC     -0.758300
      4 C10         2.1220   -0.1640    1.3670 c3        1 IBC     -0.067500
      5 N2          3.3790   -0.9720    1.3530 n4        1 IBC     -0.837600
      6 C9          2.3330    1.2820    1.7920 c3        1 IBC     -0.054200
      7 C4          3.1200    1.4430    3.0550 ce        1 IBC     -0.025400
      8 C1          2.4010    1.4600    4.3010 cc        1 IBC     -0.294400
      9 C5          4.4590    1.6080    2.9770 c2        1 IBC     -0.204200
     10 C6          5.3940    1.7760    4.1110 c3        1 IBC     -0.048200
     11 C7          5.0320    2.9350    5.0220 c3        1 IBC     -0.073400
     12 C8          4.0340    2.5440    6.0900 c3        1 IBC     -0.126700
     13 C3          2.8150    1.9360    5.5400 cd        1 IBC      0.310000
     14 O1          1.7530    1.7800    6.4580 os        1 IBC     -0.112100
     15 N1          0.7040    1.2330    5.8670 nd        1 IBC     -0.432300
     16 C2          1.0200    1.0170    4.5660 cc        1 IBC      0.545600
     17 O2          0.2370    0.4490    3.6110 oh        1 IBC     -0.581300
     18 H10         1.3890   -0.6670    2.0550 hx        1 IBC      0.104700
     19 HN21        3.6280   -1.0990    0.3440 hn        1 IBC      0.443467
     20 HN22        4.1350   -0.4990    1.8460 hn        1 IBC      0.443467
     21 H91         1.3000    1.7160    1.9100 hc        1 IBC      0.096700
     22 H92         2.8350    1.8470    0.9600 hc        1 IBC      0.096700
     23 H5          4.9340    1.6540    1.9810 ha        1 IBC      0.124000
     24 H61         6.4290    1.9490    3.7080 hc        1 IBC      0.051200
     25 H62         5.4310    0.8260    4.7120 hc        1 IBC      0.051200
     26 H71         5.9610    3.3040    5.5330 hc        1 IBC      0.059700
     27 H72         4.6250    3.7830    4.4110 hc        1 IBC      0.059700
     28 H81         4.5010    1.8120    6.8070 hc        1 IBC      0.079700
     29 H82         3.7480    3.4540    6.6890 hc        1 IBC      0.079700
     30 HO2        -0.6710    0.3620    3.9500 ho        1 IBC      0.452000
     31 H23         3.2140   -1.8850    1.7680 hn        1 IBC      0.443467
@<TRIPOS>BOND
     1    1    2 1
     2    2    3 1
     3    2    4 1
     4    4    5 1
     5    4    6 1
     6    4   18 1
     7    5   19 1
     8    5   20 1
     9    5   31 1
    10    6    7 1
    11    6   21 1
    12    6   22 1
    13    7    8 1
    14    7    9 2
    15    8   13 2
    16    8   16 1
    17    9   10 1
    18    9   23 1
    19   10   11 1
    20   10   24 1
    21   10   25 1
    22   11   12 1
    23   11   26 1
    24   11   27 1
    25   12   13 1
    26   12   28 1
    27   12   29 1
    28   13   14 1
    29   14   15 1
    30   15   16 2
    31   16   17 1
    32   17   30 1
@<TRIPOS>SUBSTRUCTURE
     1 IBC         1 TEMP              0 ****  ****    0 ROOT
