@<TRIPOS>MOLECULE
molecule
   56    58     1     0     0
SMALL
bcc


@<TRIPOS>ATOM
      1 N1           0.0000     0.0000     0.0000 nb         1 IBD      -0.730000
      2 C2           1.3260     0.0000     0.0000 ca         1 IBD       0.955900
      3 N3           2.0270     0.0000     1.1200 nb         1 IBD      -0.731000
      4 C4           1.4240    -0.0000     2.3120 ca         1 IBD       0.537600
      5 C5           0.0210    -0.0000     2.3700 ca         1 IBD      -0.343400
      6 C6          -0.6860    -0.0010     1.1330 cp         1 IBD       0.579800
      7 CAA          2.2290    -0.0040     9.1870 c3         1 IBD      -0.113100
      8 CAB         -4.7440    -6.5300     3.9120 c3         1 IBD      -0.115100
      9 CAC         -7.9770    -5.6530     2.8620 c3         1 IBD      -0.115100
     10 NAD          1.9960    -0.0000    -1.2100 nv         1 IBD      -1.049500
     11 OAE         -0.9690    -0.0030     6.4740 o          1 IBD      -0.600100
     12 CAH         -4.2380     0.9050     0.2970 ca         1 IBD      -0.089000
     13 CAI         -2.8760    -0.9090     1.9010 ca         1 IBD      -0.193000
     14 CAJ         -0.4640    -0.0010     3.6810 cc         1 IBD      -0.040200
     15 CAK          0.9130    -0.0040     8.4060 c3         1 IBD       0.112000
     16 CAL         -5.0420    -5.5400     2.7840 c3         1 IBD       0.155300
     17 CAM         -7.1030    -4.9840     3.9250 c3         1 IBD       0.155300
     18 CAN         -4.1910    -2.6920     3.4460 c3         1 IBD       0.138400
     19 CAO         -5.1380    -3.6010     4.2310 c3         1 IBD       0.158800
     20 SAT          2.0790    -0.0000     3.9430 ss         1 IBD      -0.140900
     21 CAW         -4.9400     0.0040     1.0760 ca         1 IBD       0.015400
     22 CAX         -2.8570     0.9080     0.3100 ca         1 IBD       0.030400
     23 CAY         -4.2600    -0.9040     1.8790 ca         1 IBD       0.153100
     24 CAZ          0.4680    -0.0020     4.6420 cd         1 IBD      -0.126600
     25 CBA         -2.1670    -0.0010     1.1150 cp         1 IBD      -0.114500
     26 NBE         -5.8860    -4.4530     3.2960 n3         1 IBD      -0.716600
     27 HAA          2.8020     0.8780     8.9280 hc         1 IBD       0.044367
     28 HAAA         2.7980    -0.8910     8.9360 hc         1 IBD       0.044367
     29 HAAB         2.0180     0.0010    10.2490 hc         1 IBD       0.044367
     30 HAB         -5.3740    -7.4040     3.8010 hc         1 IBD       0.039367
     31 HABA        -3.7030    -6.8260     3.8670 hc         1 IBD       0.039367
     32 HABB        -4.9440    -6.0600     4.8670 hc         1 IBD       0.039367
     33 HAC         -7.8770    -5.1190     1.9240 hc         1 IBD       0.039367
     34 HACA        -7.6600    -6.6800     2.7270 hc         1 IBD       0.039367
     35 HACB        -9.0120    -5.6340     3.1800 hc         1 IBD       0.039367
     36 HNAD         2.4190     0.8420    -1.5480 hn         1 IBD       0.449300
     37 HNAA         2.0690    -0.8450    -1.7420 hn         1 IBD       0.449300
     38 HAH         -4.7730     1.6170    -0.3210 ha         1 IBD       0.164000
     39 HAI         -2.3460    -1.6700     2.4600 ha         1 IBD       0.155000
     40 HAJ         -1.5240    -0.0020     3.9050 ha         1 IBD       0.176000
     41 HAK          0.3420     0.8810     8.6610 h1         1 IBD       0.055200
     42 HAKA         0.3420    -0.8880     8.6610 h1         1 IBD       0.055200
     43 HAL         -4.1120    -5.1300     2.4090 h1         1 IBD       0.045200
     44 HALA        -5.5590    -6.0520     1.9820 h1         1 IBD       0.045200
     45 HAM         -6.8310    -5.7120     4.6790 h1         1 IBD       0.045200
     46 HAMA        -7.6530    -4.1740     4.3880 h1         1 IBD       0.045200
     47 HAN         -3.5750    -2.1300     4.1370 h1         1 IBD       0.040200
     48 HANA        -3.5580    -3.2950     2.8060 h1         1 IBD       0.040200
     49 HAO         -5.8320    -2.9950     4.8000 h1         1 IBD       0.052200
     50 HAOA        -4.5640    -4.2240     4.9060 h1         1 IBD       0.052200
     51 HNAR         2.1450    -0.0180     6.6460 hn         1 IBD       0.315500
     52 CAU          0.1830    -0.0030     6.0810 c          1 IBD       0.700300
     53 ClAF        -6.6760     0.0060     1.0530 cl         1 IBD      -0.074400
     54 ClAG        -1.9810     2.0400    -0.6710 cl         1 IBD      -0.078400
     55 NAR          1.1980    -0.0030     6.9690 ns         1 IBD      -0.580900
     56 OAS         -4.9540    -1.7880     2.6450 os         1 IBD      -0.292900
@<TRIPOS>BOND
     1     1     2 ar
     2     1     6 ar
     3     2     3 ar
     4     2    10 1
     5     3     4 ar
     6     4     5 ar
     7     4    20 1
     8     5     6 ar
     9     5    14 1
    10     6    25 1
    11     7    15 1
    12     8    16 1
    13     9    17 1
    14    11    52 2
    15    53    21 1
    16    54    22 1
    17    12    21 ar
    18    12    22 ar
    19    13    23 ar
    20    13    25 ar
    21    14    24 2
    22    15    55 1
    23    16    26 1
    24    17    26 1
    25    18    19 1
    26    18    56 1
    27    19    26 1
    28    55    52 1
    29    56    23 1
    30    20    24 1
    31    52    24 1
    32    21    23 ar
    33    22    25 ar
    34     7    27 1
    35     7    28 1
    36     7    29 1
    37     8    30 1
    38     8    31 1
    39     8    32 1
    40     9    33 1
    41     9    34 1
    42     9    35 1
    43    10    36 1
    44    10    37 1
    45    12    38 1
    46    13    39 1
    47    14    40 1
    48    15    41 1
    49    15    42 1
    50    16    43 1
    51    16    44 1
    52    17    45 1
    53    17    46 1
    54    18    47 1
    55    18    48 1
    56    19    49 1
    57    19    50 1
    58    55    51 1
@<TRIPOS>SUBSTRUCTURE
     1 IBD         1 TEMP              0 ****  ****    0 ROOT
