@<TRIPOS>MOLECULE
IBD
   56    58     1     0     0
SMALL
bcc


@<TRIPOS>ATOM
      1 N1           0.0000     0.0000     0.0000 nb         1 IBD      -0.615000
      2 C2           1.3260     0.0000     0.0000 ca         1 IBD       0.725900
      3 N3           2.0270     0.0000     1.1200 nb         1 IBD      -0.591000
      4 C4           1.4240    -0.0000     2.3120 ca         1 IBD       0.533600
      5 C5           0.0210    -0.0000     2.3700 ca         1 IBD      -0.329400
      6 C6          -0.6860    -0.0010     1.1330 cp         1 IBD       0.534800
      7 CAA          2.2290    -0.0040     9.1870 c3         1 IBD      -0.008100
      8 CAB         -4.7440    -6.5300     3.9120 c3         1 IBD      -0.024100
      9 CAC         -7.9770    -5.6530     2.8620 c3         1 IBD      -0.024100
     10 NAD          1.9960    -0.0000    -1.2100 nv         1 IBD      -0.620500
     11 OAE         -0.9690    -0.0030     6.4740 o          1 IBD      -0.645100
     12 CAH         -4.2380     0.9050     0.2970 ca         1 IBD      -0.066000
     13 CAI         -2.8760    -0.9090     1.9010 ca         1 IBD      -0.184000
     14 CAJ         -0.4640    -0.0010     3.6810 cc         1 IBD      -0.006200
     15 CAK          0.9130    -0.0040     8.4060 c3         1 IBD       0.051000
     16 CAL         -5.0420    -5.5400     2.7840 c3         1 IBD       0.140300
     17 CAM         -7.1030    -4.9840     3.9250 c3         1 IBD       0.140300
     18 CAN         -4.1910    -2.6920     3.4460 c3         1 IBD       0.196400
     19 CAO         -5.1380    -3.6010     4.2310 c3         1 IBD       0.138800
     20 SAT          2.0790    -0.0000     3.9430 ss         1 IBD      -0.280900
     21 CAW         -4.9400     0.0040     1.0760 ca         1 IBD      -0.061600
     22 CAX         -2.8570     0.9080     0.3100 ca         1 IBD      -0.038600
     23 CAY         -4.2600    -0.9040     1.8790 ca         1 IBD       0.159100
     24 CAZ          0.4680    -0.0020     4.6420 cd         1 IBD      -0.085600
     25 CBA         -2.1670    -0.0010     1.1150 cp         1 IBD      -0.122500
     26 NBE         -5.8860    -4.4530     3.2960 n3         1 IBD      -0.530600
     27 HAA          2.8020     0.8780     8.9280 hc         1 IBD       0.009700
     28 HAAA         2.7980    -0.8910     8.9360 hc         1 IBD       0.009700
     29 HAAB         2.0180     0.0010    10.2490 hc         1 IBD       0.009700
     30 HAB         -5.3740    -7.4040     3.8010 hc         1 IBD       0.009200
     31 HABA        -3.7030    -6.8260     3.8670 hc         1 IBD       0.009200
     32 HABB        -4.9440    -6.0600     4.8670 hc         1 IBD       0.009200
     33 HAC         -7.8770    -5.1190     1.9240 hc         1 IBD       0.009200
     34 HACA        -7.6600    -6.6800     2.7270 hc         1 IBD       0.009200
     35 HACB        -9.0120    -5.6340     3.1800 hc         1 IBD       0.009200
     36 HNAD         2.4190     0.8420    -1.5480 hn         1 IBD       0.282800
     37 HNAA         2.0690    -0.8450    -1.7420 hn         1 IBD       0.282800
     38 HAH         -4.7730     1.6170    -0.3210 ha         1 IBD       0.127000
     39 HAI         -2.3460    -1.6700     2.4600 ha         1 IBD       0.135000
     40 HAJ         -1.5240    -0.0020     3.9050 ha         1 IBD       0.149000
     41 HAK          0.3420     0.8810     8.6610 h1         1 IBD       0.026200
     42 HAKA         0.3420    -0.8880     8.6610 h1         1 IBD       0.026200
     43 HAL         -4.1120    -5.1300     2.4090 h1         1 IBD       0.019950
     44 HALA        -5.5590    -6.0520     1.9820 h1         1 IBD       0.019950
     45 HAM         -6.8310    -5.7120     4.6790 h1         1 IBD       0.019950
     46 HAMA        -7.6530    -4.1740     4.3880 h1         1 IBD       0.019950
     47 HAN         -3.5750    -2.1300     4.1370 h1         1 IBD       0.007700
     48 HANA        -3.5580    -3.2950     2.8060 h1         1 IBD       0.007700
     49 HAO         -5.8320    -2.9950     4.8000 h1         1 IBD       0.025700
     50 HAOA        -4.5640    -4.2240     4.9060 h1         1 IBD       0.025700
     51 HNAR         2.1450    -0.0180     6.6460 hn         1 IBD       0.183500
     52 CAU          0.1830    -0.0030     6.0810 c          1 IBD       0.626300
     53 ClAF        -6.6760     0.0060     1.0530 cl         1 IBD       0.009600
     54 ClAG        -1.9810     2.0400    -0.6710 cl         1 IBD       0.001600
     55 NAR          1.1980    -0.0030     6.9690 ns         1 IBD      -0.189900
     56 OAS         -4.9540    -1.7880     2.6450 os         1 IBD      -0.274900
@<TRIPOS>BOND
     1     1     2 ar  
     2     1     6 ar  
     3     2     3 ar  
     4     2    10 1   
     5     3     4 ar  
     6     4     5 ar  
     7     4    20 1   
     8     5     6 ar  
     9     5    14 1   
    10     6    25 1   
    11     7    15 1   
    12     7    27 1   
    13     7    28 1   
    14     7    29 1   
    15     8    16 1   
    16     8    30 1   
    17     8    31 1   
    18     8    32 1   
    19     9    17 1   
    20     9    33 1   
    21     9    34 1   
    22     9    35 1   
    23    10    36 1   
    24    10    37 1   
    25    11    52 2   
    26    12    21 ar  
    27    12    22 ar  
    28    12    38 1   
    29    13    23 ar  
    30    13    25 ar  
    31    13    39 1   
    32    14    24 2   
    33    14    40 1   
    34    15    41 1   
    35    15    42 1   
    36    15    55 1   
    37    16    26 1   
    38    16    43 1   
    39    16    44 1   
    40    17    26 1   
    41    17    45 1   
    42    17    46 1   
    43    18    19 1   
    44    18    47 1   
    45    18    48 1   
    46    18    56 1   
    47    19    26 1   
    48    19    49 1   
    49    19    50 1   
    50    20    24 1   
    51    21    23 ar  
    52    21    53 1   
    53    22    25 ar  
    54    22    54 1   
    55    23    56 1   
    56    24    52 1   
    57    51    55 1   
    58    52    55 1   
@<TRIPOS>SUBSTRUCTURE
     1 IBD         1 TEMP              0 ****  ****    0 ROOT
