@<TRIPOS>MOLECULE
IBF
   12    12     1     0     0
SMALL
bcc


@<TRIPOS>ATOM
      1 F6          0.0240   -2.4060    0.0010 f         1 IBF     -0.095900
      2 C6         -0.6040   -1.2100    0.0010 ca        1 IBF      0.161900
      3 C1          0.1150   -0.0000    0.0010 ca        1 IBF     -0.034100
      4 I1          2.1430   -0.0000    0.0020 i         1 IBF     -0.059900
      5 C5         -2.0250   -1.2200    0.0000 ca        1 IBF      0.061900
      6 F5         -2.6890   -2.3940   -0.0000 f         1 IBF     -0.096900
      7 C4         -2.7400    0.0000   -0.0000 ca        1 IBF      0.123900
      8 F4         -4.0870    0.0000   -0.0010 f         1 IBF     -0.091900
      9 C3         -2.0250    1.2200    0.0000 ca        1 IBF      0.061900
     10 F3         -2.6890    2.3940   -0.0000 f         1 IBF     -0.096900
     11 C2         -0.6040    1.2100    0.0010 ca        1 IBF      0.161900
     12 F2          0.0240    2.4060    0.0010 f         1 IBF     -0.095900
@<TRIPOS>BOND
     1    1    2 1   
     2    2    3 ar  
     3    2    5 ar  
     4    3    4 1   
     5    3   11 ar  
     6    5    6 1   
     7    5    7 ar  
     8    7    8 1   
     9    7    9 ar  
    10    9   10 1   
    11    9   11 ar  
    12   11   12 1   
@<TRIPOS>SUBSTRUCTURE
     1 IBF         1 TEMP              0 ****  ****    0 ROOT
