@<TRIPOS>MOLECULE
IBG
   49    49     1     0     0
SMALL
bcc


@<TRIPOS>ATOM
      1 N1           0.0000     0.0000     0.0000 nz         1 IBG       0.046400
      2 CA1          1.4690     0.0000     0.0000 c3         1 IBG      -0.200500
      3 C1           1.9710     0.0000     1.4200 c          1 IBG       0.959600
      4 O11          3.1440    -0.5810     1.7170 o          1 IBG      -0.819800
      5 O12          1.3180     0.5230     2.2920 o          1 IBG      -0.819800
      6 CB1          1.9770     1.2490    -0.7220 c3         1 IBG      -0.008400
      7 CG1          1.4680     1.2490    -2.1640 c3         1 IBG      -0.122400
      8 CD1          1.9690     2.4790    -2.8750 c          1 IBG       0.580100
      9 OE1          2.6660     3.2780    -2.2860 o          1 IBG      -0.621100
     10 N2           1.6440     2.6920    -4.1650 ns         1 IBG      -0.188900
     11 CA2          2.1310     3.8880    -4.8560 c3         1 IBG      -0.038300
     12 C2           1.1380     5.0080    -4.6830 c          1 IBG       0.531100
     13 O2           1.5190     6.1600    -4.6670 o          1 IBG      -0.662100
     14 CB2          2.3010     3.5840    -6.3440 c3         1 IBG       0.077700
     15 SG2          3.4960     2.2360    -6.5530 ss         1 IBG      -0.400200
     16 N3          -0.1730     4.7310    -4.5440 ns         1 IBG      -0.146900
     17 CA3         -1.1380     5.8200    -4.3760 c3         1 IBG      -0.074000
     18 C3          -2.5260     5.2460    -4.2430 c          1 IBG       0.974600
     19 O31         -3.5770     6.0640    -4.0790 o          1 IBG      -0.893800
     20 O32         -2.6910     4.0500    -4.2860 o          1 IBG      -0.893800
     21 CS           3.4980     2.0930    -8.3620 c3         1 IBG       0.131000
     22 C1S          4.4480     1.0020    -8.7790 ca         1 IBG      -0.053300
     23 C2S          5.7730     1.3000    -9.0380 ca         1 IBG       0.207900
     24 C3S          6.6470     0.2960    -9.4160 ca         1 IBG      -0.085000
     25 I2S          6.4610     3.2680    -8.8420 i          1 IBG      -0.266900
     26 C4S          6.1920    -1.0020    -9.5460 ca         1 IBG      -0.097000
     27 C5S          4.8660    -1.3000    -9.2910 ca         1 IBG      -0.100000
     28 C6S          3.9940    -0.2980    -8.9080 ca         1 IBG      -0.083000
     29 HN11        -0.3340    -0.0320     0.9430 hn         1 IBG       0.218467
     30 HN12        -0.3340    -0.8010    -0.5000 hn         1 IBG       0.218467
     31 HA1C         1.8300    -0.8840    -0.5110 hx         1 IBG       0.080700
     32 HCB1         1.6150     2.1330    -0.2110 hc         1 IBG       0.069700
     33 HCB2         3.0610     1.2510    -0.7210 hc         1 IBG       0.069700
     34 HCG1         1.8300     0.3650    -2.6750 hc         1 IBG       0.018700
     35 HCG2         0.3850     1.2480    -2.1650 hc         1 IBG       0.018700
     36 HN2          1.0680     2.0330    -4.6510 hn         1 IBG       0.180500
     37 HA2C         3.0860     4.1840    -4.4370 h1         1 IBG       0.094700
     38 HB21         1.3470     3.2890    -6.7640 h1         1 IBG       0.050200
     39 HB22         2.6620     4.4690    -6.8550 h1         1 IBG       0.050200
     40 HN3         -0.4890     3.7820    -4.5620 hn         1 IBG       0.185500
     41 HC31        -1.0990     6.4740    -5.2380 h1         1 IBG       0.029200
     42 HC32        -0.8950     6.3840    -3.4830 h1         1 IBG       0.029200
     43 HCS1         2.4990     1.8530    -8.7060 h1         1 IBG       0.047200
     44 HCS2         3.8140     3.0330    -8.7970 h1         1 IBG       0.047200
     45 H3S          7.6850     0.5300    -9.6180 ha         1 IBG       0.116000
     46 H4S          6.8760    -1.7880    -9.8440 ha         1 IBG       0.104000
     47 H5S          4.5100    -2.3180    -9.3920 ha         1 IBG       0.104000
     48 H6S          2.9550    -0.5310    -8.7090 ha         1 IBG       0.114000
     49 H13         -0.3340     0.8310    -0.4470 hn         1 IBG       0.218467
@<TRIPOS>BOND
     1     1     2 1   
     2     1    29 1   
     3     1    30 1   
     4     1    49 1   
     5     2     3 1   
     6     2     6 1   
     7     2    31 1   
     8     3     4 1   
     9     3     5 1   
    10     6     7 1   
    11     6    32 1   
    12     6    33 1   
    13     7     8 1   
    14     7    34 1   
    15     7    35 1   
    16     8     9 2   
    17     8    10 1   
    18    10    11 1   
    19    10    36 1   
    20    11    12 1   
    21    11    14 1   
    22    11    37 1   
    23    12    13 2   
    24    12    16 1   
    25    14    15 1   
    26    14    38 1   
    27    14    39 1   
    28    15    21 1   
    29    16    17 1   
    30    16    40 1   
    31    17    18 1   
    32    17    41 1   
    33    17    42 1   
    34    18    19 1   
    35    18    20 1   
    36    21    22 1   
    37    21    43 1   
    38    21    44 1   
    39    22    23 ar  
    40    22    28 ar  
    41    23    24 ar  
    42    23    25 1   
    43    24    26 ar  
    44    24    45 1   
    45    26    27 ar  
    46    26    46 1   
    47    27    28 ar  
    48    27    47 1   
    49    28    48 1   
@<TRIPOS>SUBSTRUCTURE
     1 IBG         1 TEMP              0 ****  ****    0 ROOT
