@<TRIPOS>MOLECULE
IBH
   40    42     1     0     0
SMALL
bcc


@<TRIPOS>ATOM
      1 F1           0.0000     0.0000     0.0000 f          1 IBH      -0.124400
      2 C11          1.3510     0.0000     0.0000 ca         1 IBH       0.144400
      3 C12          2.0440     0.0000     1.1990 ca         1 IBH      -0.143500
      4 C13          3.4260     0.0010     1.1990 ca         1 IBH      -0.050000
      5 C14          4.1190     0.0010     0.0020 ca         1 IBH      -0.143500
      6 C15          3.4270     0.0010    -1.1980 ca         1 IBH       0.144400
      7 F            4.1030     0.0010    -2.3670 f          1 IBH      -0.124400
      8 C10          2.0430    -0.0060    -1.1990 ca         1 IBH      -0.135300
      9 C9           1.2900    -0.0120    -2.5040 c3         1 IBH      -0.015100
     10 C8           1.0390     1.4070    -2.9470 c          1 IBH       0.721500
     11 O            1.4340     2.3340    -2.2660 o          1 IBH      -0.625100
     12 N3           0.3880     1.6430    -4.0770 ne         1 IBH      -0.683100
     13 C7           0.1650     2.9000    -4.4690 cd         1 IBH       0.528100
     14 N2          -0.4760     3.3060    -5.5810 na         1 IBH      -0.060300
     15 N1          -0.5810     4.6660    -5.7700 n2         1 IBH      -0.476400
     16 S1           0.6310     4.3450    -3.6540 ss         1 IBH      -0.130400
     17 C6          -0.0590     5.4330    -4.8700 cc         1 IBH       0.354200
     18 C4          -0.0450     6.9400    -4.8550 c3         1 IBH       0.186200
     19 C5          -0.7610     7.4440    -3.6010 c3         1 IBH      -0.039100
     20 O1           1.3070     7.4030    -4.8510 oh         1 IBH      -0.566800
     21 C3          -0.7510     7.4610    -6.0800 cc         1 IBH       0.389700
     22 S           -1.5610     6.4900    -7.2310 ss         1 IBH      -0.255300
     23 C2          -1.9890     7.9270    -8.1550 cc         1 IBH      -0.129400
     24 N           -0.8360     8.7050    -6.4090 nd         1 IBH      -0.540000
     25 C1          -1.4880     8.9890    -7.5190 cd         1 IBH       0.315600
     26 C           -1.6590    10.3990    -8.0270 c3         1 IBH      -0.014400
     27 H12          1.5030     0.0000     2.1380 ha         1 IBH       0.121000
     28 H13          3.9680     0.0010     2.1370 ha         1 IBH       0.108000
     29 H14          5.2020     0.0020     0.0040 ha         1 IBH       0.121000
     30 H91C         1.8760    -0.5270    -3.2560 hc         1 IBH       0.049200
     31 H92C         0.3440    -0.5220    -2.3720 hc         1 IBH       0.049200
     32 H2          -0.8560     2.6530    -6.2370 hn         1 IBH       0.330800
     33 H51C        -0.2300     7.1040    -2.7200 hc         1 IBH       0.028033
     34 H52C        -1.7740     7.0580    -3.5830 hc         1 IBH       0.028033
     35 H53C        -0.7880     8.5270    -3.6100 hc         1 IBH       0.028033
     36 H1           1.3550     8.2290    -4.3980 ho         1 IBH       0.413000
     37 HA          -2.5550     7.9460    -9.0780 h4         1 IBH       0.159000
     38 HC1         -2.7100    10.6610    -8.0190 hc         1 IBH       0.012700
     39 HC2         -1.2770    10.4670    -9.0380 hc         1 IBH       0.012700
     40 HC3         -1.1120    11.0820    -7.3870 hc         1 IBH       0.012700
@<TRIPOS>BOND
     1     1     2 1   
     2     2     3 ar  
     3     2     8 ar  
     4     3     4 ar  
     5     3    27 1   
     6     4     5 ar  
     7     4    28 1   
     8     5     6 ar  
     9     5    29 1   
    10     6     7 1   
    11     6     8 ar  
    12     8     9 1   
    13     9    10 1   
    14     9    30 1   
    15     9    31 1   
    16    10    11 2   
    17    10    12 1   
    18    12    13 2   
    19    13    14 1   
    20    13    16 1   
    21    14    15 1   
    22    14    32 1   
    23    15    17 2   
    24    16    17 1   
    25    17    18 1   
    26    18    19 1   
    27    18    20 1   
    28    18    21 1   
    29    19    33 1   
    30    19    34 1   
    31    19    35 1   
    32    20    36 1   
    33    21    22 1   
    34    21    24 2   
    35    22    23 1   
    36    23    25 2   
    37    23    37 1   
    38    24    25 1   
    39    25    26 1   
    40    26    38 1   
    41    26    39 1   
    42    26    40 1   
@<TRIPOS>SUBSTRUCTURE
     1 IBH         1 TEMP              0 ****  ****    0 ROOT
