@<TRIPOS>MOLECULE
molecule
   40    42     1     0     0
SMALL
bcc


@<TRIPOS>ATOM
      1 F1           0.0000     0.0000     0.0000 f          1 IBH      -0.133900
      2 C11          1.3510     0.0000     0.0000 ca         1 IBH       0.173900
      3 C12          2.0440     0.0000     1.1990 ca         1 IBH      -0.181000
      4 C13          3.4260     0.0010     1.1990 ca         1 IBH      -0.077000
      5 C14          4.1190     0.0010     0.0020 ca         1 IBH      -0.181000
      6 C15          3.4270     0.0010    -1.1980 ca         1 IBH       0.173900
      7 F            4.1030     0.0010    -2.3670 f          1 IBH      -0.133900
      8 C10          2.0430    -0.0060    -1.1990 ca         1 IBH      -0.151300
      9 C9           1.2900    -0.0120    -2.5040 c3         1 IBH      -0.075100
     10 C8           1.0390     1.4070    -2.9470 c          1 IBH       0.712500
     11 O            1.4340     2.3340    -2.2660 o          1 IBH      -0.612100
     12 N3           0.3880     1.6430    -4.0770 ne         1 IBH      -0.773100
     13 C7           0.1650     2.9000    -4.4690 cd         1 IBH       0.664100
     14 N2          -0.4760     3.3060    -5.5810 na         1 IBH      -0.490300
     15 N1          -0.5810     4.6660    -5.7700 n2         1 IBH      -0.404400
     16 S1           0.6310     4.3450    -3.6540 ss         1 IBH       0.005600
     17 C6          -0.0590     5.4330    -4.8700 cc         1 IBH       0.263200
     18 C4          -0.0450     6.9400    -4.8550 c3         1 IBH       0.162200
     19 C5          -0.7610     7.4440    -3.6010 c3         1 IBH      -0.072100
     20 O1           1.3070     7.4030    -4.8510 oh         1 IBH      -0.557800
     21 C3          -0.7510     7.4610    -6.0800 cc         1 IBH       0.380700
     22 S           -1.5610     6.4900    -7.2310 ss         1 IBH      -0.132300
     23 C2          -1.9890     7.9270    -8.1550 cc         1 IBH      -0.208400
     24 N           -0.8360     8.7050    -6.4090 nd         1 IBH      -0.652000
     25 C1          -1.4880     8.9890    -7.5190 cd         1 IBH       0.366600
     26 C           -1.6590    10.3990    -8.0270 c3         1 IBH      -0.117400
     27 H12          1.5030     0.0000     2.1380 ha         1 IBH       0.149000
     28 H13          3.9680     0.0010     2.1370 ha         1 IBH       0.142000
     29 H14          5.2020     0.0020     0.0040 ha         1 IBH       0.149000
     30 H91C         1.8760    -0.5270    -3.2560 hc         1 IBH       0.085700
     31 H92C         0.3440    -0.5220    -2.3720 hc         1 IBH       0.085700
     32 H2          -0.8560     2.6530    -6.2370 hn         1 IBH       0.503800
     33 H51C        -0.6640     8.5210    -3.5380 hc         1 IBH       0.063367
     34 H52C        -0.3170     6.9890    -2.7240 hc         1 IBH       0.063367
     35 H53C        -1.8100     7.1780    -3.6520 hc         1 IBH       0.063367
     36 H1           1.7840     6.9860    -5.5490 ho         1 IBH       0.415000
     37 HA          -2.5550     7.9460    -9.0780 h4         1 IBH       0.180000
     38 HC1         -2.6680    10.7360    -7.8240 hc         1 IBH       0.051367
     39 HC2         -0.9530    11.0510    -7.5260 hc         1 IBH       0.051367
     40 HC3         -1.4770    10.4230    -9.0940 hc         1 IBH       0.051367
@<TRIPOS>BOND
     1     1     2 1
     2     2     3 ar
     3     2     8 ar
     4     3     4 ar
     5     4     5 ar
     6     5     6 ar
     7     6     7 1
     8     6     8 ar
     9     8     9 1
    10     9    10 1
    11    10    11 2
    12    10    12 1
    13    12    13 2
    14    13    14 1
    15    13    16 1
    16    14    15 1
    17    15    17 2
    18    16    17 1
    19    17    18 1
    20    18    19 1
    21    18    20 1
    22    18    21 1
    23    21    22 1
    24    21    24 2
    25    22    23 1
    26    23    25 2
    27    24    25 1
    28    25    26 1
    29     3    27 1
    30     4    28 1
    31     5    29 1
    32     9    30 1
    33     9    31 1
    34    14    32 1
    35    19    33 1
    36    19    34 1
    37    19    35 1
    38    20    36 1
    39    23    37 1
    40    26    38 1
    41    26    39 1
    42    26    40 1
@<TRIPOS>SUBSTRUCTURE
     1 IBH         1 TEMP              0 ****  ****    0 ROOT
