@<TRIPOS>MOLECULE
IBI
   95   100     1     0     0
SMALL
bcc


@<TRIPOS>ATOM
      1 C1           0.0000     0.0000     0.0000 c3         1 IBI       0.140300
      2 C2           1.5300     0.0000     0.0000 c3         1 IBI       0.151300
      3 C5          -0.0010    -1.1820     2.1120 c3         1 IBI       0.140300
      4 C6           1.5290    -1.1820     2.1120 c3         1 IBI       0.151300
      5 C7          -3.9430    -2.6400     1.2930 c3         1 IBI      -0.034900
      6 C8          -2.4160    -2.5600     1.3380 c3         1 IBI      -0.048900
      7 C11         -4.0770    -0.1470     1.3920 c3         1 IBI      -0.034900
      8 C12         -2.5490    -0.0670     1.4370 c3         1 IBI      -0.048900
      9 C15         -8.8430    -1.6970     1.8860 ca         1 IBI      -0.103000
     10 C16        -10.3480    -0.4690     3.8770 ca         1 IBI       0.107100
     11 C17         -8.2090    -1.0100     2.9240 ca         1 IBI      -0.136600
     12 C18         -8.9720    -0.3940     3.9210 ca         1 IBI      -0.125000
     13 C21        -17.0170    -1.1140    -0.7330 c3         1 IBI       0.057500
     14 N22        -14.9410    -1.4560    -2.0230 n          1 IBI       0.024000
     15 C24        -14.2690    -1.4140    -0.7930 ca         1 IBI      -0.401000
     16 C31        -18.4560    -1.6200    -0.8490 c3         1 IBI      -0.034400
     17 C32        -19.2200    -1.2850     0.4330 c3         1 IBI      -0.003100
     18 C33        -16.6270    -3.2440     0.3430 c3         1 IBI       0.104500
     19 C34        -15.8930    -3.8790    -0.8400 c3         1 IBI      -0.042100
     20 C35        -16.1450    -3.8850     1.6460 c3         1 IBI      -0.042100
     21 C36        -14.1950    -1.5850    -3.2780 c3         1 IBI       0.057300
     22 C38        -10.3840     0.8140     5.8790 c3         1 IBI       0.246700
     23 O40         -6.1840    -0.3340     3.8700 o          1 IBI      -0.657100
     24 C14        -10.9770    -1.1580     2.8380 ca         1 IBI      -0.012400
     25 N19        -12.3690    -1.2330     2.7940 nu         1 IBI      -0.264300
     26 C26        -13.0210    -1.3010     1.5720 ca         1 IBI       0.684900
     27 N27        -14.3330    -1.4900     1.5540 nb         1 IBI      -0.639000
     28 C25        -14.9870    -1.5600     0.3990 ca         1 IBI       0.545200
     29 N23        -16.3490    -1.8020     0.3750 nh         1 IBI      -0.468300
     30 N28        -12.3150    -1.1760     0.4590 nb         1 IBI      -0.670000
     31 C29        -12.9000    -1.2260    -0.7310 ca         1 IBI       0.454200
     32 C20        -16.2900    -1.3760    -2.0260 c          1 IBI       0.589500
     33 O30        -16.9090    -1.5150    -3.0590 o          1 IBI      -0.659500
     34 C13        -10.2180    -1.7690     1.8470 ca         1 IBI      -0.095000
     35 N41         -6.0010    -1.5270     2.0050 ns         1 IBI      -0.193900
     36 C9          -4.5390    -1.4500     2.0480 c3         1 IBI       0.015700
     37 C10         -1.9540    -1.2580     0.6820 c3         1 IBI       0.130500
     38 N3          -0.4880    -1.1820     0.7260 n3         1 IBI      -0.539600
     39 N4           2.0170     0.0000     1.3870 n3         1 IBI      -0.542600
     40 C42          3.4830     0.0760     1.4300 c3         1 IBI       0.195800
     41 C43          3.9390     0.3240     2.8690 cx         1 IBI      -0.118700
     42 C45          5.4450     0.3190     3.1450 cx         1 IBI      -0.079400
     43 C44          4.6670     1.6370     3.1640 cx         1 IBI      -0.079400
     44 H1          -0.3600    -0.0310    -1.0210 h1         1 IBI       0.020950
     45 H1A         -0.3600     0.8970     0.4890 h1         1 IBI       0.020950
     46 H2           1.8900     0.8860    -0.5080 h1         1 IBI       0.015200
     47 H2A          1.8900    -0.8860    -0.5080 h1         1 IBI       0.015200
     48 H5          -0.3610    -0.2950     2.6210 h1         1 IBI       0.020950
     49 H5A         -0.3610    -2.0680     2.6210 h1         1 IBI       0.020950
     50 H6           1.8890    -1.1510     3.1340 h1         1 IBI       0.015200
     51 H6A          1.8890    -2.0790     1.6230 h1         1 IBI       0.015200
     52 H7          -4.2750    -2.6140     0.2620 hc         1 IBI       0.020950
     53 H7A         -4.2690    -3.5620     1.7600 hc         1 IBI       0.020950
     54 H8          -1.9970    -3.4020     0.8010 hc         1 IBI       0.029450
     55 H8A         -2.0850    -2.5820     2.3690 hc         1 IBI       0.029450
     56 H11         -4.4080    -0.1260     0.3610 hc         1 IBI       0.020950
     57 H11A        -4.4970     0.6950     1.9300 hc         1 IBI       0.020950
     58 H12         -2.2230     0.8540     0.9700 hc         1 IBI       0.029450
     59 H12A        -2.2170    -0.0930     2.4680 hc         1 IBI       0.029450
     60 H15         -8.2530    -2.1740     1.1120 ha         1 IBI       0.103000
     61 H18         -8.4820     0.1390     4.7270 ha         1 IBI       0.145000
     62 H21        -17.0230    -0.0480    -0.5380 h1         1 IBI       0.062700
     63 H31        -18.4500    -2.6940    -0.9960 hc         1 IBI       0.038700
     64 H31A       -18.9400    -1.1430    -1.6930 hc         1 IBI       0.038700
     65 H32        -18.5750    -0.7290     1.1030 hc         1 IBI       0.008700
     66 H32A       -19.5360    -2.2020     0.9150 hc         1 IBI       0.008700
     67 H32B       -20.0900    -0.6870     0.1890 hc         1 IBI       0.008700
     68 H33        -17.6920    -3.4040     0.2350 h1         1 IBI       0.064700
     69 H34        -15.9930    -4.9570    -0.7900 hc         1 IBI       0.019533
     70 H34A       -16.3220    -3.5190    -1.7670 hc         1 IBI       0.019533
     71 H34B       -14.8440    -3.6120    -0.7990 hc         1 IBI       0.019533
     72 H35        -15.0960    -4.1420     1.5560 hc         1 IBI       0.019533
     73 H35A       -16.7210    -4.7810     1.8420 hc         1 IBI       0.019533
     74 H35B       -16.2760    -3.1860     2.4630 hc         1 IBI       0.019533
     75 H36        -13.4870    -2.4000    -3.1960 h1         1 IBI       0.023367
     76 H36A       -14.8840    -1.7850    -4.0890 h1         1 IBI       0.023367
     77 H36B       -13.6620    -0.6630    -3.4770 h1         1 IBI       0.023367
     78 H38        -11.0910     1.2400     6.5810 h1         1 IBI       0.001700
     79 H38A        -9.7790     1.6040     5.4510 h1         1 IBI       0.001700
     80 H38B        -9.7440     0.1080     6.3950 h1         1 IBI       0.001700
     81 HN19       -12.8950    -1.2720     3.6440 hn         1 IBI       0.303800
     82 H29        -12.3160    -1.1230    -1.6380 h4         1 IBI      -0.004900
     83 H13        -10.7090    -2.3020     1.0420 ha         1 IBI       0.140000
     84 HN41        -6.4540    -2.0440     1.2780 hn         1 IBI       0.180500
     85 H9          -4.2010    -1.4730     3.0770 h1         1 IBI       0.059700
     86 H10         -2.2900    -1.2350    -0.3470 h1         1 IBI       0.037700
     87 H42          3.9040    -0.8560     1.0730 h1         1 IBI       0.010200
     88 H42A         3.8210     0.8900     0.7990 h1         1 IBI       0.010200
     89 H43          3.3280    -0.0480     3.6830 hc         1 IBI       0.066700
     90 H45          5.7410    -0.0640     4.1140 hc         1 IBI       0.044200
     91 H45A         6.0780     0.1620     2.2800 hc         1 IBI       0.044200
     92 H44          4.4890     2.0600     4.1450 hc         1 IBI       0.044200
     93 H44A         4.8250     2.2860     2.3110 hc         1 IBI       0.044200
     94 C39         -6.7350    -0.9330     2.9670 c          1 IBI       0.599700
     95 O37        -11.0930     0.1270     4.8460 os         1 IBI      -0.316900
@<TRIPOS>BOND
     1     1     2 1   
     2     1    38 1   
     3     1    44 1   
     4     1    45 1   
     5     2    39 1   
     6     2    46 1   
     7     2    47 1   
     8     3     4 1   
     9     3    38 1   
    10     3    48 1   
    11     3    49 1   
    12     4    39 1   
    13     4    50 1   
    14     4    51 1   
    15     5     6 1   
    16     5    36 1   
    17     5    52 1   
    18     5    53 1   
    19     6    37 1   
    20     6    54 1   
    21     6    55 1   
    22     7     8 1   
    23     7    36 1   
    24     7    56 1   
    25     7    57 1   
    26     8    37 1   
    27     8    58 1   
    28     8    59 1   
    29     9    11 ar  
    30     9    34 ar  
    31     9    60 1   
    32    10    12 ar  
    33    10    24 ar  
    34    10    95 1   
    35    11    12 ar  
    36    11    94 1   
    37    12    61 1   
    38    13    16 1   
    39    13    29 1   
    40    13    32 1   
    41    13    62 1   
    42    14    15 1   
    43    14    21 1   
    44    14    32 1   
    45    15    28 ar  
    46    15    31 ar  
    47    16    17 1   
    48    16    63 1   
    49    16    64 1   
    50    17    65 1   
    51    17    66 1   
    52    17    67 1   
    53    18    19 1   
    54    18    20 1   
    55    18    29 1   
    56    18    68 1   
    57    19    69 1   
    58    19    70 1   
    59    19    71 1   
    60    20    72 1   
    61    20    73 1   
    62    20    74 1   
    63    21    75 1   
    64    21    76 1   
    65    21    77 1   
    66    22    78 1   
    67    22    79 1   
    68    22    80 1   
    69    22    95 1   
    70    23    94 2   
    71    24    25 1   
    72    24    34 ar  
    73    25    26 1   
    74    25    81 1   
    75    26    27 ar  
    76    26    30 ar  
    77    27    28 ar  
    78    28    29 1   
    79    30    31 ar  
    80    31    82 1   
    81    32    33 2   
    82    34    83 1   
    83    35    36 1   
    84    35    84 1   
    85    35    94 1   
    86    36    85 1   
    87    37    38 1   
    88    37    86 1   
    89    39    40 1   
    90    40    41 1   
    91    40    87 1   
    92    40    88 1   
    93    41    42 1   
    94    41    43 1   
    95    41    89 1   
    96    42    43 1   
    97    42    90 1   
    98    42    91 1   
    99    43    92 1   
   100    43    93 1   
@<TRIPOS>SUBSTRUCTURE
     1 IBI         1 TEMP              0 ****  ****    0 ROOT
