@<TRIPOS>MOLECULE
IBK
   39    40     1     0     0
SMALL
bcc


@<TRIPOS>ATOM
      1 CAA         1.9090   -0.7660    1.4520 c3        1 IBK     -0.109100
      2 CAB         1.4870   -2.4810   -0.3080 c3        1 IBK     -0.109100
      3 OAC         6.3090   -0.7830   -1.4300 o         1 IBK     -0.413100
      4 CAD         8.6280   -8.7290   -2.4870 cc        1 IBK     -0.161000
      5 CAE         8.6210   -9.1190   -3.8170 cd        1 IBK     -0.143100
      6 CAF         7.9180   -7.5140   -2.3000 cc        1 IBK     -0.080000
      7 CAG         6.0680   -5.1700   -4.7260 cc        1 IBK     -0.381600
      8 CAH         3.5490   -1.0360   -0.3670 c3        1 IBK      0.103800
      9 CAI         5.1290   -1.0220   -3.5530 c3        1 IBK      0.066400
     10 CAJ         4.6890   -2.9740   -4.8820 c3        1 IBK      0.087100
     11 NAK         5.6660   -4.0220   -2.7910 nd        1 IBK     -0.482300
     12 NAL         4.2990   -1.9450   -1.2820 n4        1 IBK     -0.660800
     13 OAM         4.1710   -1.9200   -4.0660 os        1 IBK     -0.413600
     14 OAN         6.3690   -5.0890   -2.4800 os        1 IBK     -0.102100
     15 SAO         7.7950   -8.0580   -4.7790 ss        1 IBK      0.124200
     16 CAP         5.3550   -1.2080   -2.0620 c         1 IBK      0.531100
     17 CAQ         5.4460   -4.0030   -4.1250 cc        1 IBK      0.300600
     18 CAR         6.6470   -5.8430   -3.6550 cd        1 IBK      0.434200
     19 CAS         7.4010   -7.0310   -3.5040 cd        1 IBK     -0.258600
     20 CAT         2.5420   -1.7790    0.5180 c3        1 IBK     -0.084700
     21 HAA         1.2080   -1.2870    2.1490 hc        1 IBK      0.057033
     22 HAAA        1.3300   -0.0030    0.8760 hc        1 IBK      0.057033
     23 HAAB        2.6870   -0.2450    2.0590 hc        1 IBK      0.057033
     24 HAB         1.0220   -1.7810   -1.0430 hc        1 IBK      0.057033
     25 HABA        1.9130   -3.3550   -0.8570 hc        1 IBK      0.057033
     26 HABB        0.6780   -2.8640    0.3630 hc        1 IBK      0.057033
     27 HAF         7.7950   -7.0200   -1.3320 ha        1 IBK      0.168000
     28 HAG         6.0660   -5.4360   -5.7780 ha        1 IBK      0.193000
     29 HAH         4.3060   -0.5040    0.2810 hx        1 IBK      0.105700
     30 HAHA        3.0100   -0.2760   -1.0000 hx        1 IBK      0.105700
     31 HAI         6.1290   -1.1030   -4.0620 h1        1 IBK      0.122200
     32 HAIA        4.6990    0.0110   -3.7010 h1        1 IBK      0.122200
     33 HAJ         5.3350   -2.5490   -5.6970 h1        1 IBK      0.101700
     34 HAJA        3.7550   -3.4270   -5.3260 h1        1 IBK      0.101700
     35 HNAL        3.6440   -2.3920   -1.9410 hn        1 IBK      0.474800
     36 HAT         3.0900   -2.5420    1.1410 hc        1 IBK      0.071700
     37 HAD         9.1130   -9.2770   -1.6750 ha        1 IBK      0.174000
     38 HAL2        4.7510   -2.6860   -0.7270 hn        1 IBK      0.474800
     39 HAE         9.1030  -10.0200   -4.2020 h4        1 IBK      0.192000
@<TRIPOS>BOND
     1    1   20 1   
     2    1   21 1   
     3    1   22 1   
     4    1   23 1   
     5    2   20 1   
     6    2   24 1   
     7    2   25 1   
     8    2   26 1   
     9    3   16 2   
    10    4    5 2   
    11    4    6 1   
    12    4   37 1   
    13    5   15 1   
    14    5   39 1   
    15    6   19 2   
    16    6   27 1   
    17    7   17 1   
    18    7   18 2   
    19    7   28 1   
    20    8   12 1   
    21    8   20 1   
    22    8   29 1   
    23    8   30 1   
    24    9   13 1   
    25    9   16 1   
    26    9   31 1   
    27    9   32 1   
    28   10   13 1   
    29   10   17 1   
    30   10   33 1   
    31   10   34 1   
    32   11   14 1   
    33   11   17 2   
    34   12   16 1   
    35   12   35 1   
    36   12   38 1   
    37   14   18 1   
    38   15   19 1   
    39   18   19 1   
    40   20   36 1   
@<TRIPOS>SUBSTRUCTURE
     1 IBK         1 TEMP              0 ****  ****    0 ROOT
