@<TRIPOS>MOLECULE
IBM
   30    31     1     0     0
SMALL
bcc


@<TRIPOS>ATOM
      1 N9         -0.1740    0.0990    0.0400 na        1 IBM     -0.333900
      2 C8          1.2400    0.1340   -0.0150 cc        1 IBM      0.386400
      3 N7          1.8110    0.0770    1.2010 nd        1 IBM     -0.569000
      4 C5          0.7490    0.0030    2.1040 cd        1 IBM      0.188800
      5 C4         -0.4970    0.0130    1.3950 cc        1 IBM     -0.009000
      6 N3         -1.7290   -0.0910    2.0200 n         1 IBM     -0.343000
      7 C2         -1.7290   -0.1080    3.4480 c         1 IBM      0.818500
      8 N1         -0.5130   -0.1340    4.1650 n         1 IBM     -0.495400
      9 C6          0.7710   -0.0750    3.5580 c         1 IBM      0.658000
     10 O6          1.7880   -0.0900    4.2650 o         1 IBM     -0.581500
     11 O2         -2.8240   -0.1340    4.0490 o         1 IBM     -0.636500
     12 C10        -0.6270   -0.2040    5.6030 c3        1 IBM      0.079300
     13 C11        -2.9670    0.0530    1.2890 c3        1 IBM      0.091000
     14 C12        -3.2870    1.4740    0.7950 c3        1 IBM     -0.091700
     15 C13        -4.3650    1.3890   -0.2660 c3        1 IBM     -0.093100
     16 C14        -3.7380    2.3540    1.9400 c3        1 IBM     -0.093100
     17 HN9        -0.8050    0.1330   -0.7160 hn        1 IBM      0.312700
     18 H8          1.7710    0.2000   -0.9710 h5        1 IBM      0.072100
     19 H101       -1.2680   -1.0810    5.8870 h1        1 IBM      0.063033
     20 H102        0.3940   -0.3180    6.0540 h1        1 IBM      0.063033
     21 H103       -1.1100    0.7320    5.9900 h1        1 IBM      0.063033
     22 H111       -3.8060   -0.2940    1.9610 h1        1 IBM      0.075200
     23 H112       -2.9140   -0.6410    0.4000 h1        1 IBM      0.075200
     24 H12        -2.3660    1.9280    0.3330 hc        1 IBM      0.046700
     25 H131       -4.0090    0.8020   -1.1460 hc        1 IBM      0.041700
     26 H132       -4.6400    2.4140   -0.6110 hc        1 IBM      0.041700
     27 H133       -5.2800    0.8960    0.1420 hc        1 IBM      0.041700
     28 H141       -3.8850    3.4020    1.5850 hc        1 IBM      0.041700
     29 H142       -2.9780    2.3560    2.7590 hc        1 IBM      0.041700
     30 H143       -4.7030    1.9830    2.3640 hc        1 IBM      0.041700
@<TRIPOS>BOND
     1    1    2 1   
     2    1    5 1   
     3    1   17 1   
     4    2    3 2   
     5    2   18 1   
     6    3    4 1   
     7    4    5 2   
     8    4    9 1   
     9    5    6 1   
    10    6    7 1   
    11    6   13 1   
    12    7    8 1   
    13    7   11 2   
    14    8    9 1   
    15    8   12 1   
    16    9   10 2   
    17   12   19 1   
    18   12   20 1   
    19   12   21 1   
    20   13   14 1   
    21   13   22 1   
    22   13   23 1   
    23   14   15 1   
    24   14   16 1   
    25   14   24 1   
    26   15   25 1   
    27   15   26 1   
    28   15   27 1   
    29   16   28 1   
    30   16   29 1   
    31   16   30 1   
@<TRIPOS>SUBSTRUCTURE
     1 IBM         1 TEMP              0 ****  ****    0 ROOT
