@<TRIPOS>MOLECULE
molecule
   17    16     1     0     0
SMALL
bcc


@<TRIPOS>ATOM
      1 C4           0.0000     0.0000     0.0000 c3         1 IBN      -0.097100
      2 C2           1.5310     0.0000     0.0000 c3         1 IBN      -0.107700
      3 C3           2.0410     0.0000     1.4430 c3         1 IBN      -0.097100
      4 C1           2.0410    -1.2480    -0.7220 c3         1 IBN       0.094800
      5 N            3.5050    -1.1880    -0.8280 nz         1 IBN      -0.809600
      6 H41         -0.3610    -0.8630     0.5460 hc         1 IBN       0.058700
      7 H42         -0.3610     0.9050     0.4740 hc         1 IBN       0.058700
      8 H43         -0.3610    -0.0420    -1.0200 hc         1 IBN       0.058700
      9 H2           1.8910     0.8850    -0.5100 hc         1 IBN       0.069700
     10 H31          3.0810     0.3040     1.4580 hc         1 IBN       0.058700
     11 H32          1.4540     0.6920     2.0340 hc         1 IBN       0.058700
     12 H33          1.9500    -0.9960     1.8580 hc         1 IBN       0.058700
     13 H11          1.6080    -1.2940    -1.7140 hx         1 IBN       0.112200
     14 H12          1.7550    -2.1310    -0.1630 hx         1 IBN       0.112200
     15 HN1          3.8090    -1.7790    -1.5770 hn         1 IBN       0.457133
     16 HN2          3.9150    -1.5000     0.0300 hn         1 IBN       0.457133
     17 HN3          3.7880    -0.2460    -1.0100 hn         1 IBN       0.457133
@<TRIPOS>BOND
     1     1     2 1
     2     1     6 1
     3     1     7 1
     4     1     8 1
     5     2     3 1
     6     2     4 1
     7     2     9 1
     8     3    10 1
     9     3    11 1
    10     3    12 1
    11     4     5 1
    12     4    13 1
    13     4    14 1
    14     5    15 1
    15     5    16 1
    16    17     5 1
@<TRIPOS>SUBSTRUCTURE
     1 IBN         1 TEMP              0 ****  ****    0 ROOT
