@<TRIPOS>MOLECULE
IBO
   16    15     1     0     0
SMALL
bcc


@<TRIPOS>ATOM
      1 CA           0.0000     0.0000     0.0000 c3         1 IBO      -0.123700
      2 C            1.5250     0.0000     0.0000 c          1 IBO       0.321100
      3 NA           2.0680     0.0000     1.2670 nz         1 IBO       0.178600
      4 O2           2.2030    -0.0020    -1.0240 o          1 IBO      -0.367100
      5 CB1         -0.5490     0.7440    -1.2160 c3         1 IBO       0.015900
      6 CB2         -0.5290    -1.4330     0.0320 c3         1 IBO       0.015900
      7 HAN1         1.9190    -0.8930     1.6940 hn         1 IBO       0.248800
      8 HAN2         3.0500     0.1830     1.2090 hn         1 IBO       0.248800
      9 HA          -0.3410     0.5090     0.8930 hc         1 IBO       0.036700
     10 HB21        -0.3510    -1.8610     1.0110 hc         1 IBO       0.029533
     11 HB22        -1.5920    -1.4300    -0.1730 hc         1 IBO       0.029533
     12 HB23        -0.0180    -2.0230    -0.7190 hc         1 IBO       0.029533
     13 HB11        -0.0850     1.7200    -1.2810 hc         1 IBO       0.029533
     14 HB12        -0.3290     0.1790    -2.1140 hc         1 IBO       0.029533
     15 HB13        -1.6210     0.8590    -1.1150 hc         1 IBO       0.029533
     16 HA3          1.6230     0.7050     1.8210 hn         1 IBO       0.248800
@<TRIPOS>BOND
     1     1     2 1   
     2     1     5 1   
     3     1     6 1   
     4     1     9 1   
     5     2     3 1   
     6     2     4 2   
     7     3     7 1   
     8     3     8 1   
     9     3    16 1   
    10     5    13 1   
    11     5    14 1   
    12     5    15 1   
    13     6    10 1   
    14     6    11 1   
    15     6    12 1   
@<TRIPOS>SUBSTRUCTURE
     1 IBO         1 TEMP              0 ****  ****    0 ROOT
