@<TRIPOS>MOLECULE
molecule
   32    32     1     0     0
SMALL
bcc


@<TRIPOS>ATOM
      1 C1           0.0000     0.0000     0.0000 c          1 IBP       0.895600
      2 C2           3.4370    -4.7140    -2.7250 c3         1 IBP      -0.022100
      3 C3           4.7850    -5.1290    -2.1330 c3         1 IBP      -0.072700
      4 C4           5.2970    -6.3780    -2.8540 c3         1 IBP      -0.087100
      5 C5           5.7910    -3.9910    -2.3080 c3         1 IBP      -0.087100
      6 C6           1.5060     0.0000     0.0000 c3         1 IBP      -0.143400
      7 C7           2.0160     0.0000     1.4420 c3         1 IBP      -0.059100
      8 C8           2.0090    -1.2290    -0.7120 ca         1 IBP      -0.014300
      9 C9           2.8040    -1.1020    -1.8350 ca         1 IBP      -0.112000
     10 C10          3.2660    -2.2290    -2.4860 ca         1 IBP      -0.138500
     11 C11          2.9330    -3.4840    -2.0140 ca         1 IBP      -0.117300
     12 C12          2.1340    -3.6120    -0.8940 ca         1 IBP      -0.138500
     13 C13          1.6760    -2.4840    -0.2400 ca         1 IBP      -0.112000
     14 O1          -0.6720     1.0060     0.5810 o          1 IBP      -0.843300
     15 O2          -0.6040    -0.9050    -0.5240 o          1 IBP      -0.843300
     16 H21          2.7250    -5.5210    -2.6000 hc         1 IBP       0.038200
     17 H22          3.5570    -4.4980    -3.7790 hc         1 IBP       0.038200
     18 H31          4.6650    -5.3450    -1.0780 hc         1 IBP       0.051700
     19 H41          5.4650    -6.1480    -3.8990 hc         1 IBP       0.029033
     20 H42          4.5610    -7.1690    -2.7730 hc         1 IBP       0.029033
     21 H43          6.2260    -6.7010    -2.4010 hc         1 IBP       0.029033
     22 H51          5.6520    -3.5320    -3.2800 hc         1 IBP       0.029033
     23 H52          5.6370    -3.2500    -1.5330 hc         1 IBP       0.029033
     24 H53          6.7980    -4.3850    -2.2360 hc         1 IBP       0.029033
     25 H61          1.8670     0.8850    -0.5100 hc         1 IBP       0.045700
     26 H71          1.9470     1.0010     1.8490 hc         1 IBP       0.021367
     27 H72          3.0490    -0.3260     1.4590 hc         1 IBP       0.021367
     28 H73          1.4140    -0.6750     2.0380 hc         1 IBP       0.021367
     29 H91          3.0650    -0.1170    -2.2050 ha         1 IBP       0.131500
     30 H101         3.8890    -2.1290    -3.3660 ha         1 IBP       0.108000
     31 H121         1.8730    -4.5960    -0.5240 ha         1 IBP       0.108000
     32 H131         1.0500    -2.5850     0.6380 ha         1 IBP       0.131500
@<TRIPOS>BOND
     1     1     6 1
     2     1    14 1
     3     1    15 1
     4     2     3 1
     5     2    11 1
     6     2    16 1
     7     2    17 1
     8     3     4 1
     9     3     5 1
    10     3    18 1
    11     4    19 1
    12     4    20 1
    13     4    21 1
    14     5    22 1
    15     5    23 1
    16     5    24 1
    17     6     7 1
    18     6     8 1
    19     6    25 1
    20     7    26 1
    21     7    27 1
    22     7    28 1
    23     8     9 ar
    24     8    13 ar
    25     9    10 ar
    26     9    29 1
    27    10    11 ar
    28    10    30 1
    29    11    12 ar
    30    12    13 ar
    31    12    31 1
    32    13    32 1
@<TRIPOS>SUBSTRUCTURE
     1 IBP         1 TEMP              0 ****  ****    0 ROOT
