@<TRIPOS>MOLECULE
IBP
   32    32     1     0     0
SMALL
bcc


@<TRIPOS>ATOM
      1 C1         -0.1370   -0.1760    0.3350 c         1 IBP      0.922600
      2 C2          3.5930   -4.4440   -2.9490 c3        1 IBP     -0.019100
      3 C3          4.7440   -5.1390   -2.2260 c3        1 IBP     -0.067700
      4 C4          5.0330   -6.4810   -2.8660 c3        1 IBP     -0.088100
      5 C5          5.9860   -4.2730   -2.2290 c3        1 IBP     -0.088100
      6 C6          1.4000   -0.0370    0.1110 c3        1 IBP     -0.167400
      7 C7          2.0830    0.0570    1.4580 c3        1 IBP     -0.061100
      8 C8          1.9530   -1.1680   -0.6860 ca        1 IBP     -0.012300
      9 C9          2.8130   -0.9300   -1.7650 ca        1 IBP     -0.134000
     10 C10         3.3490   -1.9880   -2.4970 ca        1 IBP     -0.140000
     11 C11         3.0340   -3.3090   -2.1670 ca        1 IBP     -0.120300
     12 C12         2.1630   -3.5500   -1.0950 ca        1 IBP     -0.140000
     13 C13         1.6280   -2.4960   -0.3640 ca        1 IBP     -0.134000
     14 O1         -0.8750    0.6840   -0.2170 o         1 IBP     -0.837300
     15 O2         -0.5570   -1.1140    1.0700 o         1 IBP     -0.837300
     16 H21         2.7790   -5.1960   -3.1370 hc        1 IBP      0.035200
     17 H22         3.9520   -4.0850   -3.9500 hc        1 IBP      0.035200
     18 H31         4.4300   -5.3100   -1.1570 hc        1 IBP      0.055700
     19 H41         5.2920   -6.3530   -3.9450 hc        1 IBP      0.028367
     20 H42         5.8910   -6.9780   -2.3530 hc        1 IBP      0.028367
     21 H43         4.1410   -7.1480   -2.7940 hc        1 IBP      0.028367
     22 H51         6.3890   -4.1670   -3.2650 hc        1 IBP      0.028367
     23 H52         5.7390   -3.2550   -1.8390 hc        1 IBP      0.028367
     24 H53         6.7780   -4.7260   -1.5860 hc        1 IBP      0.028367
     25 H61         1.5650    0.9240   -0.4530 hc        1 IBP      0.044700
     26 H71         1.7160    0.9600    2.0020 hc        1 IBP      0.020033
     27 H72         1.8380   -0.8460    2.0680 hc        1 IBP      0.020033
     28 H73         3.1920    0.1330    1.3460 hc        1 IBP      0.020033
     29 H91         3.0620    0.1050   -2.0430 ha        1 IBP      0.152500
     30 H101        4.0220   -1.7830   -3.3410 ha        1 IBP      0.109000
     31 H121        1.8970   -4.5860   -0.8370 ha        1 IBP      0.109000
     32 H131        0.9120   -2.6690    0.4610 ha        1 IBP      0.152500
@<TRIPOS>BOND
     1    1    6 1   
     2    1   14 1   
     3    1   15 1   
     4    2    3 1   
     5    2   11 1   
     6    2   16 1   
     7    2   17 1   
     8    3    4 1   
     9    3    5 1   
    10    3   18 1   
    11    4   19 1   
    12    4   20 1   
    13    4   21 1   
    14    5   22 1   
    15    5   23 1   
    16    5   24 1   
    17    6    7 1   
    18    6    8 1   
    19    6   25 1   
    20    7   26 1   
    21    7   27 1   
    22    7   28 1   
    23    8    9 ar  
    24    8   13 ar  
    25    9   10 ar  
    26    9   29 1   
    27   10   11 ar  
    28   10   30 1   
    29   11   12 ar  
    30   12   13 ar  
    31   12   31 1   
    32   13   32 1   
@<TRIPOS>SUBSTRUCTURE
     1 IBP         1 TEMP              0 ****  ****    0 ROOT
