@<TRIPOS>MOLECULE
IBQ
   68    72     1     0     0
SMALL
bcc


@<TRIPOS>ATOM
      1 I01          0.0000     0.0000     0.0000 i          1 IBQ      -0.299900
      2 O02          5.2270    -0.8310     4.9840 oh         1 IBQ      -0.599800
      3 N04          6.2530    -4.8610     4.0520 n3         1 IBQ      -0.541600
      4 N05          6.2100     0.0000     0.0000 nb         1 IBQ      -0.666000
      5 C06          6.5620    -1.1170     4.5620 c3         1 IBQ       0.247100
      6 C07          7.0560     0.0010     3.6400 c3         1 IBQ       0.051900
      7 C09          7.4610    -1.2090     5.7660 ca         1 IBQ      -0.110300
      8 C10          6.2440    -0.0000     2.3710 ca         1 IBQ      -0.208600
      9 C12          6.9010     1.3290     4.3350 ca         1 IBQ      -0.076300
     10 C13          8.8290    -1.4910     5.6080 ca         1 IBQ      -0.012000
     11 C14          6.9550    -1.0150     7.0160 ca         1 IBQ      -0.093000
     12 C15          4.8820    -0.0000     2.4300 ca         1 IBQ      -0.035000
     13 C16          9.6590    -1.5730     6.7530 ca         1 IBQ      -0.037000
     14 C17          6.8880     0.0000     1.1270 ca         1 IBQ       0.640600
     15 C19          8.0140     2.1060     4.5960 ca         1 IBQ      -0.098500
     16 C18          5.6460     1.7730     4.7060 ca         1 IBQ      -0.098500
     17 C20          7.7710    -1.0960     8.1420 ca         1 IBQ      -0.100000
     18 C21          9.3900    -1.6910     4.3350 ca         1 IBQ      -0.135000
     19 C22          4.1610     0.0000     1.2190 ca         1 IBQ      -0.181300
     20 C23          9.0990    -1.3720     8.0270 ca         1 IBQ      -0.083000
     21 C24          4.8720    -0.0000    -0.0050 ca         1 IBQ       0.414600
     22 C26          6.0370    -5.9760     4.9850 c3         1 IBQ       0.179600
     23 C25          5.3400    -4.9520     2.9040 c3         1 IBQ       0.179600
     24 C27         11.0270    -1.8540     6.5940 ca         1 IBQ      -0.084000
     25 C29          7.8730     3.3250     5.2330 ca         1 IBQ      -0.102500
     26 C28          5.5040     2.9910     5.3440 ca         1 IBQ      -0.102500
     27 C30         10.7180    -1.9630     4.2200 ca         1 IBQ      -0.086000
     28 C31          6.6170     3.7660     5.6080 ca         1 IBQ      -0.103000
     29 C32         11.5350    -2.0430     5.3450 ca         1 IBQ      -0.102000
     30 C33          2.7580     0.0000     1.2070 ca         1 IBQ      -0.051000
     31 C34          4.1540     0.0000    -1.2130 ca         1 IBQ      -0.150300
     32 C35          2.0950    -0.0000     0.0170 ca         1 IBQ       0.188900
     33 C36          2.7920     0.0010    -1.1900 ca         1 IBQ      -0.071000
     34 C37          8.8510    -0.0010    -0.2090 c3         1 IBQ       0.254700
     35 H02          4.9240    -1.5160     5.5570 ho         1 IBQ       0.403000
     36 H371         9.9290     0.0220    -0.1020 h1         1 IBQ       0.001700
     37 H372         8.5250     0.8750    -0.7560 h1         1 IBQ       0.001700
     38 H373         8.5620    -0.8930    -0.7520 h1         1 IBQ       0.001700
     39 H111         5.0730    -3.4100     4.9960 h1         1 IBQ       0.013200
     40 H112         6.7150    -3.5700     5.6360 h1         1 IBQ       0.013200
     41 H251         5.7980    -4.4850     2.0410 h1         1 IBQ       0.002033
     42 H252         5.1360    -5.9940     2.6860 h1         1 IBQ       0.002033
     43 H253         4.4120    -4.4440     3.1390 h1         1 IBQ       0.002033
     44 H261         6.7540    -5.9140     5.7940 h1         1 IBQ       0.002033
     45 H262         5.0320    -5.9210     5.3870 h1         1 IBQ       0.002033
     46 H263         6.1650    -6.9150     4.4600 h1         1 IBQ       0.002033
     47 H07          8.1000    -0.1630     3.4010 hc         1 IBQ       0.079700
     48 H081         5.9230    -2.3870     2.9500 hc         1 IBQ       0.053200
     49 H082         7.5920    -2.6560     3.4710 hc         1 IBQ       0.053200
     50 H14          5.9010    -0.7940     7.1360 ha         1 IBQ       0.113000
     51 H15          4.3810     0.2410     3.3590 ha         1 IBQ       0.158000
     52 H18          4.7730     1.1660     4.4980 ha         1 IBQ       0.121000
     53 H19          8.9970     1.7590     4.3020 ha         1 IBQ       0.121000
     54 H21          8.7670    -1.6310     3.4510 ha         1 IBQ       0.145000
     55 H20          7.3420    -0.9380     9.1240 ha         1 IBQ       0.102000
     56 H23          9.7210    -1.4320     8.9110 ha         1 IBQ       0.106000
     57 H27         11.6730    -1.9200     7.4610 ha         1 IBQ       0.106000
     58 H28          4.5200     3.3380     5.6360 ha         1 IBQ       0.101000
     59 H29          8.7450     3.9330     5.4390 ha         1 IBQ       0.101000
     60 H30         11.1480    -2.1170     3.2370 ha         1 IBQ       0.102000
     61 H33          2.2090    -0.1130     2.1340 ha         1 IBQ       0.121000
     62 H34          4.6810     0.0010    -2.1590 ha         1 IBQ       0.121000
     63 H32         12.5890    -2.2610     5.2260 ha         1 IBQ       0.102000
     64 H31          6.5060     4.7210     6.1080 ha         1 IBQ       0.100000
     65 H36          2.2430     0.0020    -2.1230 ha         1 IBQ       0.117000
     66 O03          8.2430    -0.0000     1.0830 os         1 IBQ      -0.436100
     67 C08          6.5830    -2.4470     3.8060 c3         1 IBQ      -0.104400
     68 C11          6.1120    -3.5690     4.7350 c3         1 IBQ       0.143800
@<TRIPOS>BOND
     1     1    32 1   
     2     2     5 1   
     3     2    35 1   
     4     3    22 1   
     5     3    23 1   
     6     3    68 1   
     7     4    14 ar  
     8     4    21 ar  
     9     5     6 1   
    10     5     7 1   
    11     5    67 1   
    12     6     8 1   
    13     6     9 1   
    14     6    47 1   
    15     7    10 ar  
    16     7    11 ar  
    17     8    12 ar  
    18     8    14 ar  
    19     9    15 ar  
    20     9    16 ar  
    21    10    13 ar  
    22    10    18 ar  
    23    11    17 ar  
    24    11    50 1   
    25    12    19 ar  
    26    12    51 1   
    27    13    20 ar  
    28    13    24 ar  
    29    14    66 1   
    30    15    25 ar  
    31    15    53 1   
    32    16    26 ar  
    33    16    52 1   
    34    17    20 ar  
    35    17    55 1   
    36    18    27 ar  
    37    18    54 1   
    38    19    21 ar  
    39    19    30 ar  
    40    20    56 1   
    41    21    31 ar  
    42    22    44 1   
    43    22    45 1   
    44    22    46 1   
    45    23    41 1   
    46    23    42 1   
    47    23    43 1   
    48    24    29 ar  
    49    24    57 1   
    50    25    28 ar  
    51    25    59 1   
    52    26    28 ar  
    53    26    58 1   
    54    27    29 ar  
    55    27    60 1   
    56    28    64 1   
    57    29    63 1   
    58    30    32 ar  
    59    30    61 1   
    60    31    33 ar  
    61    31    62 1   
    62    32    33 ar  
    63    33    65 1   
    64    34    36 1   
    65    34    37 1   
    66    34    38 1   
    67    34    66 1   
    68    39    68 1   
    69    40    68 1   
    70    48    67 1   
    71    49    67 1   
    72    67    68 1   
@<TRIPOS>SUBSTRUCTURE
     1 IBQ         1 TEMP              0 ****  ****    0 ROOT
