@<TRIPOS>MOLECULE
IBR
   28    28     1     0     0
SMALL
bcc


@<TRIPOS>ATOM
      1 C'           0.0000     0.0000     0.0000 c          1 IBR       0.669500
      2 O'           1.2120     0.0000     0.0000 o          1 IBR      -0.557100
      3 C1'         -2.1340     0.0000     1.2790 ca         1 IBR      -0.040300
      4 C2'         -0.7360     0.0000     1.2750 ca         1 IBR      -0.198600
      5 C3'         -0.0390     0.0040     2.4870 ca         1 IBR      -0.041000
      6 C4'         -0.7390    -0.0010     3.6820 ca         1 IBR       0.016600
      7 C5'         -2.1290    -0.0010     3.6740 ca         1 IBR      -0.077000
      8 C6'         -2.8190     0.0000     2.4760 ca         1 IBR      -0.096000
      9 N           -0.0480    -0.0030     4.8960 nv         1 IBR      -0.559200
     10 C1          -3.1430     1.4210    -0.4570 c          1 IBR       0.693100
     11 O11         -3.8060     1.6670    -1.5970 os         1 IBR      -0.417900
     12 O12         -2.7480     2.3390     0.2210 o          1 IBR      -0.573000
     13 C1E         -4.8180     3.0370    -3.3380 c3         1 IBR       0.141000
     14 C2E         -4.0490     3.0360    -2.0150 c3         1 IBR       0.222400
     15 Br          -6.5350     2.1120    -3.0980 br         1 IBR      -0.221400
     16 H'          -0.5420     0.0000    -0.9380 h4         1 IBR      -0.039800
     17 H3'          1.0440     0.0040     2.4920 ha         1 IBR       0.127000
     18 H5'         -2.6740    -0.0030     4.6110 ha         1 IBR       0.108000
     19 H6'         -3.9020     0.0010     2.4770 ha         1 IBR       0.107000
     20 HN1          0.2050    -0.8700     5.3270 hn         1 IBR       0.274800
     21 HN2          0.2030     0.8630     5.3300 hn         1 IBR       0.274800
     22 H21         -3.8370    -0.5100     0.1080 hc         1 IBR       0.045200
     23 H22         -2.3070    -0.5090    -0.7810 hc         1 IBR       0.045200
     24 HE11        -4.2350     2.5250    -4.0950 h1         1 IBR       0.036700
     25 HE12        -4.9980     4.0580    -3.6500 h1         1 IBR       0.036700
     26 HE21        -4.6310     3.5470    -1.2580 h1         1 IBR       0.022200
     27 HE22        -3.1020     3.5460    -2.1480 h1         1 IBR       0.022200
     28 C2          -2.8900     0.0010    -0.0240 c3         1 IBR      -0.020100
@<TRIPOS>BOND
     1     1     2 2   
     2     1     4 1   
     3     1    16 1   
     4     3     4 ar  
     5     3     8 ar  
     6     3    28 1   
     7     4     5 ar  
     8     5     6 ar  
     9     5    17 1   
    10     6     7 ar  
    11     6     9 1   
    12     7     8 ar  
    13     7    18 1   
    14     8    19 1   
    15     9    20 1   
    16     9    21 1   
    17    10    11 1   
    18    10    12 2   
    19    10    28 1   
    20    11    14 1   
    21    13    14 1   
    22    13    15 1   
    23    13    24 1   
    24    13    25 1   
    25    14    26 1   
    26    14    27 1   
    27    22    28 1   
    28    23    28 1   
@<TRIPOS>SUBSTRUCTURE
     1 IBR         1 TEMP              0 ****  ****    0 ROOT
