@<TRIPOS>MOLECULE
IBS
   43    43     1     0     0
SMALL
bcc


@<TRIPOS>ATOM
      1 C1         -0.3880    0.1440   -0.0300 c3        1 IBS      0.182100
      2 C2          0.9280    0.7950    0.4570 c3        1 IBS      0.121100
      3 C3          1.1620    0.5980    1.9630 c3        1 IBS      0.094100
      4 C4          1.1550   -0.9450    2.2680 c3        1 IBS      0.213100
      5 C5         -0.3930   -1.2480    2.2970 c3        1 IBS      0.205100
      6 C6         -0.8110   -1.1180    0.7750 c3        1 IBS      0.115100
      7 O1         -1.3860    1.1530   -0.0550 os        1 IBS     -0.580200
      8 O2          2.0080    0.3140   -0.3310 oh        1 IBS     -0.676800
      9 O3          2.3260    1.3170    2.3150 oh        1 IBS     -0.690800
     10 O4          1.9240   -1.2650    3.3620 os        1 IBS     -0.554200
     11 O5         -0.7460   -2.4990    2.7470 os        1 IBS     -0.564200
     12 O6         -2.1940   -1.2990    0.5570 oh        1 IBS     -0.690800
     13 P1         -1.9970    1.6730   -1.4530 p5        1 IBS      1.455800
     14 O11        -1.7520    0.8790   -2.6750 o         1 IBS     -0.856000
     15 O12        -1.0110    3.0430   -1.6560 os        1 IBS     -0.554200
     16 C21        -0.9270    3.8950   -0.5760 c3        1 IBS      0.134400
     17 C24        -1.6610    5.2040   -0.8520 c         1 IBS      0.544100
     18 O29        -1.1380    6.2030   -1.3760 o         1 IBS     -0.648100
     19 C25        -3.1090    5.2650   -0.4350 c3        1 IBS     -0.018600
     20 O26        -3.7050    6.5400   -0.6640 oh        1 IBS     -0.654800
     21 O13        -3.2920    2.3690   -1.2200 o         1 IBS     -0.856000
     22 P4          3.5350   -1.8250    3.0680 p5        1 IBS      1.341900
     23 O41         3.8640   -0.9650    1.8530 o         1 IBS     -0.947500
     24 O42         4.2890   -1.3980    4.3070 o         1 IBS     -0.947500
     25 O43         3.6000   -3.3020    2.7980 o         1 IBS     -0.947500
     26 P5         -2.0970   -2.6850    3.8030 p5        1 IBS      1.338900
     27 O51        -2.1770   -1.4700    4.6900 o         1 IBS     -0.944833
     28 O52        -3.2240   -2.7470    2.7840 o         1 IBS     -0.944833
     29 O53        -1.9070   -3.9960    4.5270 o         1 IBS     -0.944833
     30 H1         -0.2340   -0.1910   -1.1020 h1        1 IBS      0.024700
     31 H2          0.8820    1.9060    0.2470 h1        1 IBS      0.000700
     32 H3          0.3290    1.1060    2.5240 h1        1 IBS      0.040700
     33 H4          1.5870   -1.4840    1.3700 h1        1 IBS      0.009700
     34 H5         -0.9380   -0.4720    2.9070 h1        1 IBS      0.038700
     35 H6         -0.2810   -1.9740    0.2510 h1        1 IBS      0.004700
     36 HO2         2.6390   -0.1350    0.2670 ho        1 IBS      0.471000
     37 HO3         3.0450    0.6530    2.4140 ho        1 IBS      0.467000
     38 HO6        -2.5580   -1.7610    1.3520 ho        1 IBS      0.483000
     39 H211       -1.3680    3.4220    0.3480 h1        1 IBS      0.052700
     40 H212        0.1570    4.1490   -0.3940 h1        1 IBS      0.052700
     41 H25        -3.6910    4.4670   -0.9880 h1        1 IBS      0.118200
     42 H251       -3.2000    5.0740    0.6670 h1        1 IBS      0.118200
     43 H26        -3.1770    6.9770   -1.3440 ho        1 IBS      0.392000
@<TRIPOS>BOND
     1    1    2 1
     2    1    6 1
     3    1    7 1
     4    1   30 1
     5    2    3 1
     6    2    8 1
     7    2   31 1
     8    3    4 1
     9    3    9 1
    10    3   32 1
    11    4    5 1
    12    4   10 1
    13    4   33 1
    14    5    6 1
    15    5   11 1
    16    5   34 1
    17    6   12 1
    18    6   35 1
    19    7   13 1
    20    8   36 1
    21    9   37 1
    22   10   22 1
    23   11   26 1
    24   12   38 1
    25   13   14 1
    26   13   15 1
    27   13   21 1
    28   15   16 1
    29   16   17 1
    30   16   39 1
    31   16   40 1
    32   17   18 2
    33   17   19 1
    34   19   20 1
    35   19   41 1
    36   19   42 1
    37   20   43 1
    38   22   23 1
    39   22   24 1
    40   22   25 1
    41   26   27 1
    42   26   28 1
    43   26   29 1
@<TRIPOS>SUBSTRUCTURE
     1 IBS         1 TEMP              0 ****  ****    0 ROOT
