@<TRIPOS>MOLECULE
molecule
   17    16     1     0     0
SMALL
bcc


@<TRIPOS>ATOM
      1 C            0.0000     0.0000     0.0000 c          1 IBU       0.472100
      2 OA2          1.2150     0.0000     0.0000 o          1 IBU      -0.586500
      3 OA1         -0.6720     0.0000     1.1660 os         1 IBU      -0.480900
      4 CB           0.1200    -0.0010     2.3840 c3         1 IBU       0.169400
      5 CG          -0.8130    -0.0010     3.5970 c3         1 IBU      -0.081700
      6 CD1         -1.6070    -1.3090     3.6300 c3         1 IBU      -0.083600
      7 CD2          0.0160     0.1230     4.8770 c3         1 IBU      -0.083600
      8 H1B          0.7440    -0.8860     2.4080 h1         1 IBU       0.026200
      9 H2B          0.7450     0.8830     2.4090 h1         1 IBU       0.026200
     10 HG          -1.4970     0.8360     3.5270 hc         1 IBU       0.051700
     11 H1D1        -2.3180    -1.3200     2.8130 hc         1 IBU       0.026200
     12 H2D1        -0.9280    -2.1460     3.5280 hc         1 IBU       0.026200
     13 H3D1        -2.1370    -1.3860     4.5710 hc         1 IBU       0.026200
     14 H1D2         0.5610     1.0600     4.8650 hc         1 IBU       0.026200
     15 H2D2         0.7170    -0.7010     4.9350 hc         1 IBU       0.026200
     16 H3D2        -0.6410     0.0990     5.7370 hc         1 IBU       0.026200
     17 O3          -0.6730     0.0070    -1.1640 o          1 IBU      -0.586500
@<TRIPOS>BOND
     1     1     2 1
     2     1    17 1
     3     3     1 1
     4     3     4 1
     5     4     9 1
     6     4     8 1
     7     5     4 1
     8     5     6 1
     9     5     7 1
    10     6    13 1
    11     6    12 1
    12     7    16 1
    13    10     5 1
    14    11     6 1
    15    14     7 1
    16    15     7 1
@<TRIPOS>SUBSTRUCTURE
     1 IBU         1 TEMP              0 ****  ****    0 ROOT
