@<TRIPOS>MOLECULE
IBU
   17    15     1     0     0
SMALL
bcc


@<TRIPOS>ATOM
      1 C          -0.2090   -0.9940   -0.1570 c1        1 IBU      0.458000
      2 OA2         0.9640   -1.1890   -0.0900 o         1 IBU     -0.241000
      3 OA1        -0.3620    0.8090    1.3430 oh        1 IBU     -0.411000
      4 CB          0.2180    0.7020    2.6490 c3        1 IBU     -0.085000
      5 CG         -0.7150    0.0640    3.7170 c3        1 IBU      0.095000
      6 CD1        -0.9440   -1.3880    3.3200 c3        1 IBU     -0.189000
      7 CD2        -0.2060    0.2080    5.0440 c2        1 IBU     -0.879000
      8 H1B        -1.3170    0.8300    1.4630 ho        1 IBU      0.194000
      9 H2B         0.5050    1.7360    2.9710 h1        1 IBU      0.057000
     10 HG          1.1400    0.0850    2.5020 h1        1 IBU      0.057000
     11 H1D1       -1.7000    0.6200    3.5810 hc        1 IBU     -0.019000
     12 H2D1       -1.7810   -1.8180    3.9180 hc        1 IBU      0.034000
     13 H3D1       -1.1990   -1.4740    2.2320 hc        1 IBU      0.034000
     14 H1D2       -0.0260   -1.9920    3.5130 hc        1 IBU      0.034000
     15 H2D2        0.3790   -0.5740    5.5090 ha        1 IBU      0.051000
     16 H3D2       -0.3570    1.1300    5.5920 ha        1 IBU      0.051000
     17 O3         -1.3840   -0.8770   -0.3250 o         1 IBU     -0.241000
@<TRIPOS>BOND
     1    1    2 1   
     2    1   17 1   
     3    3    4 1   
     4    3    8 1   
     5    4    5 1   
     6    4    9 1   
     7    4   10 1   
     8    5    6 1   
     9    5    7 1   
    10    5   11 1   
    11    6   12 1   
    12    6   13 1   
    13    6   14 1   
    14    7   15 1   
    15    7   16 1   
@<TRIPOS>SUBSTRUCTURE
     1 IBU         1 TEMP              0 ****  ****    0 ROOT
