@<TRIPOS>MOLECULE
molecule
   16    16     1     0     0
SMALL
bcc


@<TRIPOS>ATOM
      1 S            0.0000     0.0000     0.0000 sh         1 IBZ      -0.408900
      2 C            1.8170     0.0000     0.0000 c3         1 IBZ       0.080000
      3 C1           2.3880     0.0000     1.3820 ca         1 IBZ      -0.042300
      4 C2           2.6750     1.1780     2.0710 ca         1 IBZ       0.069900
      5 C3           3.2080     1.1210     3.3590 ca         1 IBZ      -0.100000
      6 C4           3.4540    -0.1150     3.9570 ca         1 IBZ      -0.124000
      7 C5           3.1670    -1.2930     3.2680 ca         1 IBZ      -0.116000
      8 C6           2.6340    -1.2360     1.9800 ca         1 IBZ      -0.111000
      9 I            2.3230     3.0640     1.2360 i          1 IBZ      -0.159900
     10 H1           2.1670    -0.8810    -0.5240 h1         1 IBZ       0.067700
     11 H2           2.1670     0.8810    -0.5240 h1         1 IBZ       0.067700
     12 H3           3.4310     2.0360     3.8940 ha         1 IBZ       0.145000
     13 H4           3.8680    -0.1600     4.9570 ha         1 IBZ       0.137000
     14 H5           3.3590    -2.2520     3.7330 ha         1 IBZ       0.136000
     15 H6           2.4110    -2.1510     1.4450 ha         1 IBZ       0.141000
     16 HS1         -0.4430    -0.1000    -1.2470 hs         1 IBZ       0.216800
@<TRIPOS>BOND
     1     1     2 1
     2     2     3 1
     3     2    10 1
     4     2    11 1
     5     3     4 ar
     6     3     8 ar
     7     4     5 ar
     8     4     9 1
     9     5     6 ar
    10     5    12 1
    11     6     7 ar
    12     6    13 1
    13     7     8 ar
    14     7    14 1
    15     8    15 1
    16    16     1 1
@<TRIPOS>SUBSTRUCTURE
     1 IBZ         1 TEMP              0 ****  ****    0 ROOT
