@<TRIPOS>MOLECULE
IBZ
   16    16     1     0     0
SMALL
bcc


@<TRIPOS>ATOM
      1 S           0.0440   -0.2030    0.1180 sh        1 IBZ     -0.359900
      2 C           1.8070   -0.0170   -0.0170 c3        1 IBZ      0.043000
      3 C1          2.3660   -0.0060    1.3550 ca        1 IBZ     -0.039300
      4 C2          2.6720    1.1810    2.0340 ca        1 IBZ      0.041900
      5 C3          3.2040    1.1270    3.3240 ca        1 IBZ     -0.101000
      6 C4          3.4360   -0.0980    3.9450 ca        1 IBZ     -0.128000
      7 C5          3.1350   -1.2830    3.2740 ca        1 IBZ     -0.113000
      8 C6          2.6060   -1.2360    1.9880 ca        1 IBZ     -0.118000
      9 I           2.3780    3.0140    1.2220 i         1 IBZ     -0.141900
     10 H1          2.0590    0.9230   -0.5690 h1        1 IBZ      0.075700
     11 H2          2.2280   -0.8750   -0.5990 h1        1 IBZ      0.075700
     12 H3          3.4440    2.0580    3.8630 ha        1 IBZ      0.146000
     13 H4          3.8540   -0.1290    4.9620 ha        1 IBZ      0.138000
     14 H5          3.3140   -2.2540    3.7590 ha        1 IBZ      0.138000
     15 H6          2.3630   -2.1710    1.4590 ha        1 IBZ      0.143000
     16 HS1        -0.2820    0.0710   -1.1330 hs        1 IBZ      0.198800
@<TRIPOS>BOND
     1    1    2 1   
     2    1   16 1   
     3    2    3 1   
     4    2   10 1   
     5    2   11 1   
     6    3    4 ar  
     7    3    8 ar  
     8    4    5 ar  
     9    4    9 1   
    10    5    6 ar  
    11    5   12 1   
    12    6    7 ar  
    13    6   13 1   
    14    7    8 ar  
    15    7   14 1   
    16    8   15 1   
@<TRIPOS>SUBSTRUCTURE
     1 IBZ         1 TEMP              0 ****  ****    0 ROOT
