@<TRIPOS>MOLECULE
IC1
   40    42     1     0     0
SMALL
bcc


@<TRIPOS>ATOM
      1 N1           0.0000     0.0000     0.0000 ns         1 IC1      -0.001100
      2 C2           1.3450     0.0000     0.0000 c          1 IC1       0.622700
      3 O2           2.0600    -0.0010    -0.9850 o          1 IC1      -0.659500
      4 C3           1.7980     0.0000     1.3980 cc         1 IC1      -0.171400
      5 C4           0.3110     0.0010     3.5730 ca         1 IC1      -0.069000
      6 C5          -0.9900     0.0000     4.0330 ca         1 IC1      -0.134000
      7 C6          -2.0440    -0.0000     3.1350 ca         1 IC1      -0.073000
      8 C7          -1.8100    -0.0010     1.7760 ca         1 IC1      -0.122000
      9 C8          -0.5060     0.0000     1.2920 ca         1 IC1      -0.102400
     10 C9           0.5580    -0.0070     2.2040 ca         1 IC1      -0.086800
     11 C10          3.0970     0.0000     1.8570 cf         1 IC1       0.094800
     12 C1'          3.3560    -0.0000     3.2490 ca         1 IC1      -0.212800
     13 C2'          4.0840    -1.0540     3.8340 ca         1 IC1       0.232600
     14 C3'          4.3310    -1.0460     5.1940 ca         1 IC1      -0.353000
     15 C4'          3.8640    -0.0020     5.9820 ca         1 IC1       0.230100
     16 C5'          3.1400     1.0390     5.4150 ca         1 IC1      -0.353000
     17 C6'          2.8870     1.0520     4.0570 ca         1 IC1       0.232600
     18 O2'          4.5420    -2.0740     3.0660 os         1 IC1      -0.266900
     19 O4'          4.1110    -0.0030     7.3170 os         1 IC1      -0.278900
     20 O6'          2.1850     2.0730     3.5050 os         1 IC1      -0.266900
     21 C11          5.2300    -2.9720     3.9390 c3         1 IC1       0.212700
     22 C12          3.5140     1.1800     7.8490 c3         1 IC1       0.216700
     23 C13          1.8550     2.9690     4.5680 c3         1 IC1       0.212700
     24 HN1         -0.5640    -0.0000    -0.8270 hn         1 IC1       0.174500
     25 H41          1.1360     0.0010     4.2750 ha         1 IC1       0.125000
     26 H51         -1.1860     0.0010     5.0980 ha         1 IC1       0.102000
     27 H61         -3.0630    -0.0000     3.5040 ha         1 IC1       0.100000
     28 H71         -2.6430    -0.0010     1.0830 ha         1 IC1       0.104000
     29 H101         3.9210     0.0000     1.1530 ha         1 IC1       0.122000
     30 H3'1         4.8930    -1.8540     5.6460 ha         1 IC1       0.161000
     31 H5'1         2.7800     1.8480     6.0390 ha         1 IC1       0.161000
     32 H111         6.0500    -2.4530     4.4180 h1         1 IC1       0.005700
     33 H112         4.5440    -3.3390     4.6930 h1         1 IC1       0.005700
     34 H113         5.6160    -3.8070     3.3660 h1         1 IC1       0.005700
     35 H121         2.4450     1.1570     7.6690 h1         1 IC1       0.004033
     36 H122         3.9430     2.0500     7.3660 h1         1 IC1       0.004033
     37 H123         3.6990     1.2310     8.9150 h1         1 IC1       0.004033
     38 H131         1.2780     2.4430     5.3190 h1         1 IC1       0.005700
     39 H132         2.7650     3.3520     5.0140 h1         1 IC1       0.005700
     40 H133         1.2710     3.7940     4.1770 h1         1 IC1       0.005700
@<TRIPOS>BOND
     1     1     2 1   
     2     1     9 1   
     3     1    24 1   
     4     2     3 2   
     5     2     4 1   
     6     4    10 1   
     7     4    11 2   
     8     5     6 ar  
     9     5    10 ar  
    10     5    25 1   
    11     6     7 ar  
    12     6    26 1   
    13     7     8 ar  
    14     7    27 1   
    15     8     9 ar  
    16     8    28 1   
    17     9    10 ar  
    18    11    12 1   
    19    11    29 1   
    20    12    13 ar  
    21    12    17 ar  
    22    13    14 ar  
    23    13    18 1   
    24    14    15 ar  
    25    14    30 1   
    26    15    16 ar  
    27    15    19 1   
    28    16    17 ar  
    29    16    31 1   
    30    17    20 1   
    31    18    21 1   
    32    19    22 1   
    33    20    23 1   
    34    21    32 1   
    35    21    33 1   
    36    21    34 1   
    37    22    35 1   
    38    22    36 1   
    39    22    37 1   
    40    23    38 1   
    41    23    39 1   
    42    23    40 1   
@<TRIPOS>SUBSTRUCTURE
     1 IC1         1 TEMP              0 ****  ****    0 ROOT
