@<TRIPOS>MOLECULE
molecule
   28    29     1     0     0
SMALL
bcc


@<TRIPOS>ATOM
      1 N4          -1.5400     0.0070    -2.0540 n1         1 IC3      -0.318800
      2 C11         -0.8500    -0.0000    -1.1510 cg         1 IC3       0.247800
      3 C9           0.0000     0.0000     0.0000 cc         1 IC3      -0.279300
      4 C10          1.3920     0.0000     0.0000 cd         1 IC3       0.137500
      5 N5           2.2140     0.0020    -1.1090 nv         1 IC3      -0.440200
      6 C8          -0.4150     0.0050     1.3520 cc         1 IC3       0.468200
      7 N2           0.6470     0.0040     2.1090 nd         1 IC3      -0.548800
      8 N1           1.7890     0.0000     1.3020 na         1 IC3      -0.035600
      9 C1           3.1050     0.0000     1.7520 cc         1 IC3       0.303700
     10 C2           3.5380    -0.9660     2.6900 cc         1 IC3      -0.130300
     11 N3           2.6840    -1.8890     3.1520 nh         1 IC3       0.364500
     12 O2           1.7170    -2.2130     2.4860 o          1 IC3      -0.034000
     13 O1           2.8750    -2.4040     4.2390 oh         1 IC3      -0.349200
     14 C3           4.8730    -0.9490     3.1320 cc         1 IC3       0.025000
     15 C4           5.7370    -0.0050     2.6560 cd         1 IC3      -0.191200
     16 C7           7.1660     0.0080     3.1340 c3         1 IC3       0.680100
     17 F3           7.9460    -0.7950     2.2940 f          1 IC3      -0.198633
     18 F2           7.6540     1.3190     3.1100 f          1 IC3      -0.198633
     19 F1           7.2250    -0.4880     4.4410 f          1 IC3      -0.198633
     20 C5           5.3100     0.9420     1.7360 cd         1 IC3       0.055000
     21 C6           4.0070     0.9430     1.2800 cc         1 IC3      -0.176000
     22 H8          -1.4390     0.0370     1.7040 h4         1 IC3       0.087100
     23 H51N         1.8220     0.1230    -2.0220 hn         1 IC3       0.308700
     24 H52N         3.2000    -0.1340    -1.0020 hn         1 IC3       0.308700
     25 H61C         3.6870     1.6850     0.5580 ha         1 IC3       0.198000
     26 H31C         5.2160    -1.6840     3.8510 ha         1 IC3       0.194000
     27 H5           6.0030     1.6870     1.3650 ha         1 IC3       0.197000
     28 H1           2.2470    -3.0950     4.3740 ho         1 IC3       0.520000
@<TRIPOS>BOND
     1     1     2 3
     2     2     3 1
     3     3     4 2
     4     3     6 1
     5     4     5 1
     6     4     8 1
     7     6     7 2
     8     7     8 1
     9     8     9 2
    10     9    10 1
    11     9    21 1
    12    10    11 2
    13    10    14 1
    14    11    12 1
    15    11    13 1
    16    14    15 2
    17    15    16 1
    18    15    20 1
    19    16    17 1
    20    16    18 1
    21    16    19 1
    22    20    21 2
    23     6    22 1
    24     5    23 1
    25     5    24 1
    26    21    25 1
    27    14    26 1
    28    20    27 1
    29    13    28 1
@<TRIPOS>SUBSTRUCTURE
     1 IC3         1 TEMP              0 ****  ****    0 ROOT
