@<TRIPOS>MOLECULE
IC3
   28    29     1     0     0
SMALL
bcc


@<TRIPOS>ATOM
      1 N4          -1.5400     0.0070    -2.0540 n1         1 IC3      -0.332800
      2 C11         -0.8500    -0.0000    -1.1510 cg         1 IC3       0.235800
      3 C9           0.0000     0.0000     0.0000 cc         1 IC3      -0.245300
      4 C10          1.3920     0.0000     0.0000 cd         1 IC3      -0.183500
      5 N5           2.2140     0.0020    -1.1090 nv         1 IC3       0.079800
      6 C8          -0.4150     0.0050     1.3520 cc         1 IC3       0.551200
      7 N2           0.6470     0.0040     2.1090 nd         1 IC3      -0.709800
      8 N1           1.7890     0.0000     1.3020 na         1 IC3       0.403400
      9 C1           3.1050     0.0000     1.7520 cc         1 IC3       0.267300
     10 C2           3.5380    -0.9660     2.6900 cc         1 IC3      -0.368700
     11 N3           2.6840    -1.8890     3.1520 nh         1 IC3       1.117500
     12 O2           1.7170    -2.2130     2.4860 o          1 IC3      -0.312000
     13 O1           2.8750    -2.4040     4.2390 oh         1 IC3      -0.523200
     14 C3           4.8730    -0.9490     3.1320 cc         1 IC3       0.014400
     15 C4           5.7370    -0.0050     2.6560 cd         1 IC3      -0.222200
     16 C7           7.1660     0.0080     3.1340 c3         1 IC3       0.645100
     17 F3           7.9460    -0.7950     2.2940 f          1 IC3      -0.187967
     18 F2           7.6540     1.3190     3.1100 f          1 IC3      -0.187967
     19 F1           7.2250    -0.4880     4.4410 f          1 IC3      -0.187967
     20 C5           5.3100     0.9420     1.7360 cd         1 IC3       0.126000
     21 C6           4.0070     0.9430     1.2800 cc         1 IC3      -0.242600
     22 H8          -1.4390     0.0370     1.7040 h4         1 IC3       0.027100
     23 H51N         1.8220     0.1230    -2.0220 hn         1 IC3       0.132700
     24 H52N         3.2000    -0.1340    -1.0020 hn         1 IC3       0.132700
     25 H61C         3.6870     1.6850     0.5580 ha         1 IC3       0.156000
     26 H31C         5.2160    -1.6840     3.8510 ha         1 IC3       0.147000
     27 H5           6.0030     1.6870     1.3650 ha         1 IC3       0.146000
     28 H1           2.2470    -3.0950     4.3740 ho         1 IC3       0.521000
@<TRIPOS>BOND
     1     1     2 3   
     2     2     3 1   
     3     3     4 2   
     4     3     6 1   
     5     4     5 1   
     6     4     8 1   
     7     5    23 1   
     8     5    24 1   
     9     6     7 2   
    10     6    22 1   
    11     7     8 1   
    12     8     9 2   
    13     9    10 1   
    14     9    21 1   
    15    10    11 2   
    16    10    14 1   
    17    11    12 1   
    18    11    13 1   
    19    13    28 1   
    20    14    15 2   
    21    14    26 1   
    22    15    16 1   
    23    15    20 1   
    24    16    17 1   
    25    16    18 1   
    26    16    19 1   
    27    20    21 2   
    28    20    27 1   
    29    21    25 1   
@<TRIPOS>SUBSTRUCTURE
     1 IC3         1 TEMP              0 ****  ****    0 ROOT
