@<TRIPOS>MOLECULE
IC8
   49    53     1     0     0
SMALL
bcc


@<TRIPOS>ATOM
      1 CAT          0.0000     0.0000     0.0000 c3         1 IC8       0.044200
      2 CAP          1.5060     0.0000     0.0000 ca         1 IC8      -0.053300
      3 CAQ          2.1980     0.0000     1.1960 ca         1 IC8      -0.098000
      4 CAR          3.5810     0.0000     1.1970 ca         1 IC8      -0.071000
      5 CAJ          4.2750     0.0000     0.0020 ca         1 IC8      -0.105000
      6 CAI          3.5910     0.0000    -1.1970 ca         1 IC8      -0.072000
      7 CAH          2.2020    -0.0060    -1.2020 ca         1 IC8      -0.139400
      8 NAG          1.5040    -0.0120    -2.4160 n          1 IC8       0.166500
      9 CAF          1.1700    -1.1920    -2.9910 c          1 IC8       0.622100
     10 OAB          1.4640    -2.2530    -2.4750 o          1 IC8      -0.651500
     11 CAE          0.4380    -1.1400    -4.2650 ca         1 IC8      -0.215600
     12 CAD          0.0470    -2.2960    -4.9380 ca         1 IC8       0.003700
     13 CAA          0.3710    -3.6520    -4.3670 c3         1 IC8       0.049200
     14 CAC         -0.6370    -2.1890    -6.1290 ca         1 IC8      -0.131000
     15 CAK         -0.9400    -0.9420    -6.6610 ca         1 IC8      -0.058000
     16 CAL         -0.5630     0.2120    -6.0110 ca         1 IC8      -0.101000
     17 CAM          0.1320     0.1300    -4.8030 ca         1 IC8       0.154400
     18 NAN          0.5210     1.2410    -4.1300 nc         1 IC8      -0.523100
     19 CAO          1.1630     1.1660    -3.0040 cd         1 IC8       0.264900
     20 CAS          1.5540     2.4480    -2.3160 c3         1 IC8      -0.065000
     21 N9           1.0950     3.5900    -3.1110 na         1 IC8       0.239000
     22 C8           1.8270     4.2800    -4.0300 cc         1 IC8       0.240700
     23 N7           1.1060     5.2320    -4.5480 nd         1 IC8      -0.491100
     24 C5          -0.1310     5.2140    -3.9960 ca         1 IC8      -0.243200
     25 C4          -0.1550     4.1550    -3.0720 ca         1 IC8       0.280800
     26 N3          -1.2720     3.9170    -2.3920 nb         1 IC8      -0.689000
     27 C2          -2.3440     4.6590    -2.5820 ca         1 IC8       0.692900
     28 N1          -2.3690     5.6610    -3.4400 nb         1 IC8      -0.746000
     29 C6          -1.2970     5.9790    -4.1590 ca         1 IC8       0.593200
     30 N6          -1.3340     7.0300    -5.0590 nv         1 IC8      -0.482500
     31 HAT1        -0.3610     0.7060     0.7380 hc         1 IC8       0.019700
     32 HAT2        -0.3610    -0.9920     0.2430 hc         1 IC8       0.019700
     33 HAT3        -0.3610     0.2860    -0.9800 hc         1 IC8       0.019700
     34 HAQ          1.6570     0.0000     2.1350 ha         1 IC8       0.113000
     35 HAR          4.1210     0.0010     2.1360 ha         1 IC8       0.106000
     36 HAJ          5.3590     0.0030     0.0060 ha         1 IC8       0.109000
     37 HAI          4.1360    -0.0020    -2.1330 ha         1 IC8       0.111000
     38 HAA1         1.4420    -3.7370    -4.2240 hc         1 IC8       0.021367
     39 HAA2         0.0370    -4.4220    -5.0530 hc         1 IC8       0.021367
     40 HAA3        -0.1320    -3.7730    -3.4160 hc         1 IC8       0.021367
     41 HAC         -0.9420    -3.0850    -6.6550 ha         1 IC8       0.112000
     42 HAK         -1.4790    -0.8770    -7.5980 ha         1 IC8       0.103000
     43 HAL         -0.8050     1.1780    -6.4360 ha         1 IC8       0.122000
     44 HAS1         2.6320     2.4900    -2.2150 h1         1 IC8       0.055200
     45 HAS2         1.0980     2.4850    -1.3340 h1         1 IC8       0.055200
     46 H8           2.8560     4.0670    -4.2920 h5         1 IC8       0.028800
     47 H2          -3.2400     4.4330    -2.0160 h5         1 IC8      -0.006900
     48 H61N        -2.1770     7.5560    -5.1790 hn         1 IC8       0.275800
     49 H62N        -0.5210     7.2580    -5.5960 hn         1 IC8       0.275800
@<TRIPOS>BOND
     1     1     2 1   
     2     1    31 1   
     3     1    32 1   
     4     1    33 1   
     5     2     3 ar  
     6     2     7 ar  
     7     3     4 ar  
     8     3    34 1   
     9     4     5 ar  
    10     4    35 1   
    11     5     6 ar  
    12     5    36 1   
    13     6     7 ar  
    14     6    37 1   
    15     7     8 1   
    16     8     9 1   
    17     8    19 1   
    18     9    10 2   
    19     9    11 1   
    20    11    12 ar  
    21    11    17 ar  
    22    12    13 1   
    23    12    14 ar  
    24    13    38 1   
    25    13    39 1   
    26    13    40 1   
    27    14    15 ar  
    28    14    41 1   
    29    15    16 ar  
    30    15    42 1   
    31    16    17 ar  
    32    16    43 1   
    33    17    18 1   
    34    18    19 2   
    35    19    20 1   
    36    20    21 1   
    37    20    44 1   
    38    20    45 1   
    39    21    22 1   
    40    21    25 1   
    41    22    23 2   
    42    22    46 1   
    43    23    24 1   
    44    24    25 ar  
    45    24    29 ar  
    46    25    26 ar  
    47    26    27 ar  
    48    27    28 ar  
    49    27    47 1   
    50    28    29 ar  
    51    29    30 1   
    52    30    48 1   
    53    30    49 1   
@<TRIPOS>SUBSTRUCTURE
     1 IC8         1 TEMP              0 ****  ****    0 ROOT
