@<TRIPOS>MOLECULE
IC9
   29    29     1     0     0
SMALL
bcc


@<TRIPOS>ATOM
      1 O1           0.0000     0.0000     0.0000 o          1 IC9      -0.581800
      2 S            1.4210     0.0000     0.0000 s6         1 IC9       0.798000
      3 O2           2.1150     0.0000     1.2400 o          1 IC9      -0.581800
      4 C3           1.9990    -1.4100    -0.9850 c3         1 IC9       0.067700
      5 C4           1.6000    -2.6950    -0.3050 ca         1 IC9      -0.090300
      6 C9           0.3850    -3.2840    -0.5980 ca         1 IC9      -0.078000
      7 C8           0.0190    -4.4620     0.0260 ca         1 IC9      -0.099500
      8 C7           0.8690    -5.0500     0.9440 ca         1 IC9      -0.085300
      9 C7M          0.4710    -6.3340     1.6240 c3         1 IC9       0.064200
     10 C6           2.0850    -4.4620     1.2360 ca         1 IC9      -0.099500
     11 C5           2.4530    -3.2870     0.6090 ca         1 IC9      -0.078000
     12 C2           1.9990     1.4080    -0.9870 c3         1 IC9       0.154600
     13 N            1.3020     1.4190    -2.2790 n7         1 IC9      -0.552200
     14 C1           0.1290     2.3010    -2.2370 c3         1 IC9       0.163100
     15 H1           3.0780    -1.3700    -1.0750 h1         1 IC9       0.068700
     16 H2           1.5520    -1.3700    -1.9710 h1         1 IC9       0.068700
     17 H3          -0.2810    -2.8230    -1.3170 ha         1 IC9       0.111500
     18 H4          -0.9340    -4.9230    -0.2040 ha         1 IC9       0.106500
     19 H5          -0.5860    -6.5150     1.4650 hc         1 IC9       0.007033
     20 H6           0.6680    -6.2570     2.6860 hc         1 IC9       0.007033
     21 H7           1.0430    -7.1550     1.2100 hc         1 IC9       0.007033
     22 H8           2.7520    -4.9250     1.9530 ha         1 IC9       0.106500
     23 H9           3.4070    -2.8260     0.8380 ha         1 IC9       0.111500
     24 H10          3.0660     1.3190    -1.1520 h2         1 IC9       0.058700
     25 H11          1.7910     2.3300    -0.4570 h2         1 IC9       0.058700
     26 H12          1.9290     1.7310    -2.9940 hn         1 IC9       0.250800
     27 H14         -0.4550     2.0840    -1.3510 h1         1 IC9       0.011367
     28 H15         -0.4790     2.1370    -3.1190 h1         1 IC9       0.011367
     29 H16          0.4540     3.3340    -2.2100 h1         1 IC9       0.011367
@<TRIPOS>BOND
     1     1     2 2   
     2     2     3 2   
     3     2     4 1   
     4     2    12 1   
     5     4     5 1   
     6     4    15 1   
     7     4    16 1   
     8     5     6 ar  
     9     5    11 ar  
    10     6     7 ar  
    11     6    17 1   
    12     7     8 ar  
    13     7    18 1   
    14     8     9 1   
    15     8    10 ar  
    16     9    19 1   
    17     9    20 1   
    18     9    21 1   
    19    10    11 ar  
    20    10    22 1   
    21    11    23 1   
    22    12    13 1   
    23    12    24 1   
    24    12    25 1   
    25    13    14 1   
    26    13    26 1   
    27    14    27 1   
    28    14    28 1   
    29    14    29 1   
@<TRIPOS>SUBSTRUCTURE
     1 IC9         1 TEMP              0 ****  ****    0 ROOT
