@<TRIPOS>MOLECULE
molecule
   18    19     1     0     0
SMALL
bcc


@<TRIPOS>ATOM
      1 C10          0.0000     0.0000     0.0000 c          1 ICB       0.894800
      2 C01          5.8730     0.0000     1.3810 ca         1 ICB      -0.183000
      3 C02          6.0290     0.0000     0.0000 ca         1 ICB      -0.151000
      4 C03          4.9310    -0.0010    -0.8300 ca         1 ICB      -0.140000
      5 C04          3.6500    -0.0000    -0.2850 ca         1 ICB      -0.064200
      6 C05          3.4940    -0.0010     1.1160 ca         1 ICB      -0.092800
      7 C06          4.6280    -0.0010     1.9390 ca         1 ICB      -0.091000
      8 C07          2.1030    -0.0010     1.3780 cc         1 ICB      -0.214200
      9 C08          1.4580     0.0010     0.1810 cd         1 ICB      -0.050300
     10 N09          2.3920     0.0000    -0.8380 na         1 ICB      -0.152400
     11 O11         -0.7330     0.0040     0.9700 o          1 ICB      -0.826800
     12 O12         -0.5260     0.0000    -1.2420 o          1 ICB      -0.826800
     13 H3           5.1400     0.0050    -1.8930 ha         1 ICB       0.110000
     14 H4           4.5820    -0.0070     3.0210 ha         1 ICB       0.113000
     15 H5           1.6390    -0.0930     2.3520 ha         1 ICB       0.158000
     16 H6           2.1850     0.0000    -1.8170 hn         1 ICB       0.308700
     17 H1           6.7590    -0.0020     2.0040 ha         1 ICB       0.104000
     18 H2           7.0310     0.0050    -0.4120 ha         1 ICB       0.106000
@<TRIPOS>BOND
     1     3     4 ar
     2     3     2 ar
     3     4     5 ar
     4     2     7 ar
     5     5    10 1
     6     5     6 ar
     7    10     9 1
     8     7     6 ar
     9     6     8 1
    10     9     8 2
    11     9     1 1
    12    11     1 1
    13     1    12 1
    14     2    17 1
    15     3    18 1
    16     4    13 1
    17     7    14 1
    18     8    15 1
    19    10    16 1
@<TRIPOS>SUBSTRUCTURE
     1 ICB         1 TEMP              0 ****  ****    0 ROOT
