@<TRIPOS>MOLECULE
molecule
   19    19     1     0     0
SMALL
bcc


@<TRIPOS>ATOM
      1 O            0.0000     0.0000     0.0000 o          1 ICC      -0.651500
      2 C6           1.2130     0.0000     0.0000 c          1 ICC       0.697500
      3 N            1.8770     0.0000     1.1570 ns         1 ICC      -0.581900
      4 C5           1.9680    -0.0080    -1.3120 c3         1 ICC      -0.154400
      5 C4           2.6160     1.3640    -1.5080 c3         1 ICC      -0.075400
      6 C3           3.9550     1.4330    -0.7970 c3         1 ICC      -0.083400
      7 C2           3.8500     1.3700     0.7150 c3         1 ICC      -0.105400
      8 C1           3.3490    -0.0070     1.1710 c3         1 ICC       0.101000
      9 HN           1.3710     0.0050     2.0210 hn         1 ICC       0.325500
     10 H5           1.2800    -0.2040    -2.1260 hc         1 ICC       0.067200
     11 H5A          2.7350    -0.7720    -1.2850 hc         1 ICC       0.067200
     12 H4           2.7670     1.5380    -2.5660 hc         1 ICC       0.052200
     13 H4A          1.9610     2.1270    -1.1050 hc         1 ICC       0.052200
     14 H3           4.4420     2.3610    -1.0700 hc         1 ICC       0.041700
     15 H3A          4.5660     0.6040    -1.1340 hc         1 ICC       0.041700
     16 H2           4.8260     1.5530     1.1470 hc         1 ICC       0.052700
     17 H2A          3.1560     2.1300     1.0550 hc         1 ICC       0.052700
     18 H1           3.7140    -0.7690     0.4930 h1         1 ICC       0.050700
     19 H1A          3.7010    -0.2070     2.1760 h1         1 ICC       0.050700
@<TRIPOS>BOND
     1     1     2 2
     2     2     3 1
     3     2     4 1
     4     3     8 1
     5     4     5 1
     6     5     6 1
     7     6     7 1
     8     7     8 1
     9     3     9 1
    10     4    10 1
    11     4    11 1
    12     5    12 1
    13     5    13 1
    14     6    14 1
    15     6    15 1
    16     7    16 1
    17     7    17 1
    18     8    18 1
    19     8    19 1
@<TRIPOS>SUBSTRUCTURE
     1 ICC         1 TEMP              0 ****  ****    0 ROOT
