@<TRIPOS>MOLECULE
ICD
   36    38     1     0     0
SMALL
bcc


@<TRIPOS>ATOM
      1 CAA         0.0540    0.0390   -0.1310 ca        1 ICD      0.034200
      2 CAB         1.4480   -0.0030    0.0590 ca        1 ICD     -0.351500
      3 CAC        -0.8300    0.0710    1.0420 ce        1 ICD      0.175900
      4 CAD        -0.4870    0.0640   -1.4200 ca        1 ICD     -0.106000
      5 SAE         2.1670   -0.0790    1.5900 sy        1 ICD      1.511200
      6 CAF         2.2760    0.0040   -1.0680 ca        1 ICD     -0.021000
      7 CAG        -0.3480    0.3140    2.3080 cf        1 ICD     -0.068200
      8 OAH        -2.1220   -0.2480    0.7410 oh        1 ICD     -0.487100
      9 CAI         0.3580    0.0580   -2.5290 ca        1 ICD     -0.076000
     10 NAJ         1.0050    0.6330    2.5150 nh        1 ICD     -0.658300
     11 OAK         3.3370    0.7040    1.5950 o         1 ICD     -0.639300
     12 OAL         2.3410   -1.4170    1.9630 o         1 ICD     -0.639300
     13 CAM         1.7410    0.0320   -2.3540 ca        1 ICD     -0.134000
     14 CAN        -1.2830    0.2830    3.4840 c         1 ICD      0.699300
     15 CAO         1.3070    1.7340    3.3880 c3        1 ICD      0.193100
     16 NAP        -0.7910   -0.2490    4.6630 n         1 ICD     -0.512400
     17 OAQ        -2.4550    0.6990    3.3690 o         1 ICD     -0.617100
     18 CAR        -1.5220   -0.3400    5.8480 cc        1 ICD      0.426200
     19 NAS        -1.0400   -0.8730    7.0140 nd        1 ICD     -0.404300
     20 CAT        -2.9070    0.1100    6.0700 cc        1 ICD     -0.353600
     21 OAU        -1.9840   -0.7960    7.9260 os        1 ICD     -0.115100
     22 CAV        -3.1520   -0.1990    7.3900 cd        1 ICD      0.274000
     23 CAW        -4.2890   -0.0550    8.2970 c3        1 ICD     -0.141400
     24 HAD        -1.5810    0.0870   -1.5500 ha        1 ICD      0.163000
     25 HAF         3.3730   -0.0040   -0.9300 ha        1 ICD      0.158000
     26 HAH        -2.7050   -0.0430    1.4930 ho        1 ICD      0.464000
     27 HAI        -0.0700    0.0750   -3.5440 ha        1 ICD      0.144000
     28 HAM         2.4110    0.0330   -3.2280 ha        1 ICD      0.147000
     29 HAO         0.4510    2.4580    3.4410 h1        1 ICD      0.058700
     30 HAOA        1.5240    1.3590    4.4250 h1        1 ICD      0.058700
     31 HAOB        2.2150    2.2780    3.0050 h1        1 ICD      0.058700
     32 HNAP        0.1350   -0.6240    4.6740 hn        1 ICD      0.352500
     33 HAT        -3.5500    0.5750    5.3280 ha        1 ICD      0.203000
     34 HAW        -3.9840   -0.2670    9.3520 hc        1 ICD      0.067367
     35 HAWA       -5.0990   -0.7730    8.0080 hc        1 ICD      0.067367
     36 HAWB       -4.6960    0.9860    8.2370 hc        1 ICD      0.067367
@<TRIPOS>BOND
     1    1    2 ar  
     2    1    3 1   
     3    1    4 ar  
     4    2    5 1   
     5    2    6 ar  
     6    3    7 2   
     7    3    8 1   
     8    4    9 ar  
     9    4   24 1   
    10    5   10 1   
    11    5   11 2   
    12    5   12 2   
    13    6   13 ar  
    14    6   25 1   
    15    7   10 1   
    16    7   14 1   
    17    8   26 1   
    18    9   13 ar  
    19    9   27 1   
    20   10   15 1   
    21   13   28 1   
    22   14   16 1   
    23   14   17 2   
    24   15   29 1   
    25   15   30 1   
    26   15   31 1   
    27   16   18 1   
    28   16   32 1   
    29   18   19 2   
    30   18   20 1   
    31   19   21 1   
    32   20   22 2   
    33   20   33 1   
    34   21   22 1   
    35   22   23 1   
    36   23   34 1   
    37   23   35 1   
    38   23   36 1   
@<TRIPOS>SUBSTRUCTURE
     1 ICD         1 TEMP              0 ****  ****    0 ROOT
