@<TRIPOS>MOLECULE
molecule
   12    11     1     0     0
SMALL
bcc


@<TRIPOS>ATOM
      1 FAC          0.0000     0.0000     0.0000 f          1 ICF      -0.206300
      2 CAJ          1.3990     0.0000     0.0000 c3         1 ICF       0.629900
      3 FAD          1.8660     1.1410    -0.6600 f          1 ICF      -0.206300
      4 FAE          1.8640    -1.1430    -0.6590 f          1 ICF      -0.206300
      5 CAI          1.9090     0.0000     1.4430 c3         1 ICF       0.167500
      6 ClAF         1.3090     1.4730     2.2910 cl         1 ICF      -0.130400
      7 OAG          3.3370    -0.0020     1.4420 os         1 ICF      -0.386600
      8 CAH          3.7500    -0.0020     2.8100 c3         1 ICF       0.561700
      9 FAB          3.2550     1.1400     3.4470 f          1 ICF      -0.232300
     10 FAA          3.2530    -1.1430     3.4470 f          1 ICF      -0.232300
     11 HAI          1.5460    -0.8840     1.9540 h2         1 ICF       0.115700
     12 HAH          4.8320    -0.0030     2.8600 h3         1 ICF       0.124700
@<TRIPOS>BOND
     1     1     2 1
     2     2     3 1
     3     2     4 1
     4     2     5 1
     5     5     6 1
     6     5     7 1
     7     5    11 1
     8     7     8 1
     9     8     9 1
    10     8    10 1
    11     8    12 1
@<TRIPOS>SUBSTRUCTURE
     1 ICF         1 TEMP              0 ****  ****    0 ROOT
