@<TRIPOS>MOLECULE
ICF
   12    11     1     0     0
SMALL
bcc


@<TRIPOS>ATOM
      1 FAC         0.0750   -0.2560   -0.0910 f         1 ICF     -0.219633
      2 CAJ         1.4210   -0.0860    0.1000 c3        1 ICF      0.634900
      3 FAD         1.8330    0.7610   -0.8880 f         1 ICF     -0.219633
      4 FAE         1.9780   -1.3000   -0.2050 f         1 ICF     -0.219633
      5 CAI         1.7760    0.3730    1.5680 c3        1 ICF      0.203500
      6 CLAF        1.0760    1.9440    1.9280 cl        1 ICF     -0.117400
      7 OAG         3.1880    0.4230    1.6090 os        1 ICF     -0.438600
      8 CAH         3.8420   -0.0980    2.7480 c3        1 ICF      0.591700
      9 FAB         3.3580    0.5250    3.8590 f         1 ICF     -0.238800
     10 FAA         3.4780   -1.4050    2.8870 f         1 ICF     -0.238800
     11 HAI         1.3490   -0.3660    2.2950 h2        1 ICF      0.117700
     12 HAH         4.9450    0.0620    2.5650 h3        1 ICF      0.144700
@<TRIPOS>BOND
     1    1    2 1   
     2    2    3 1   
     3    2    4 1   
     4    2    5 1   
     5    5    6 1   
     6    5    7 1   
     7    5   11 1   
     8    7    8 1   
     9    8    9 1   
    10    8   10 1   
    11    8   12 1   
@<TRIPOS>SUBSTRUCTURE
     1 ICF         1 TEMP              0 ****  ****    0 ROOT
