@<TRIPOS>MOLECULE
molecule
   18    17     1     0     0
SMALL
bcc


@<TRIPOS>ATOM
      1 C1           0.0000     0.0000     0.0000 c          1 ICI       0.906600
      2 C2           1.5070     0.0000     0.0000 c3         1 ICI       0.064100
      3 C3           2.0160     0.0000     1.4410 c3         1 ICI      -0.121700
      4 C4           3.5460     0.0010     1.4410 c3         1 ICI      -0.157400
      5 C5           4.0500     1.3000     0.8690 c          1 ICI       0.887600
      6 C6           1.5150    -1.2300     2.1520 c          1 ICI       0.900600
      7 O1          -0.6050    -0.9060    -0.5220 o          1 ICI      -0.895800
      8 O2          -0.6710     1.0080     0.5810 o          1 ICI      -0.895800
      9 O3           3.2690     2.1840     0.6040 o          1 ICI      -0.904800
     10 O4           5.3630     1.4760     0.6570 o          1 ICI      -0.904800
     11 O5           0.7540    -1.9820     1.5930 o          1 ICI      -0.888300
     12 O6           1.9130    -1.4880     3.4080 o          1 ICI      -0.888300
     13 O7           1.9820    -1.1670    -0.6730 oh         1 ICI      -0.590800
     14 H2           1.8680     0.8840    -0.5110 h1         1 ICI       0.029700
     15 H3           1.6550     0.8850     1.9520 hc         1 ICI       0.072700
     16 H41          3.9070    -0.1100     2.4560 hc         1 ICI       0.028700
     17 H42          3.9070    -0.8230     0.8370 hc         1 ICI       0.028700
     18 HO7          2.0780    -0.9830    -1.5930 ho         1 ICI       0.330000
@<TRIPOS>BOND
     1     1     2 1
     2     1     7 1
     3     1     8 1
     4     2     3 1
     5     2    13 1
     6     2    14 1
     7     3     4 1
     8     3     6 1
     9     3    15 1
    10     4     5 1
    11     4    16 1
    12     4    17 1
    13     5     9 1
    14     5    10 1
    15     6    11 1
    16     6    12 1
    17    13    18 1
@<TRIPOS>SUBSTRUCTURE
     1 ICI         1 TEMP              0 ****  ****    0 ROOT
