@<TRIPOS>MOLECULE
ICI
   18    17     1     0     0
SMALL
bcc


@<TRIPOS>ATOM
      1 C1         -0.0430    0.2510   -0.3200 c         1 ICI      0.894600
      2 C2          1.4660   -0.0250   -0.1420 c3        1 ICI      0.067100
      3 C3          1.9920   -0.0310    1.3010 c3        1 ICI     -0.154700
      4 C4          3.5180    0.0510    1.3150 c3        1 ICI     -0.146400
      5 C5          4.1860    1.4230    1.2410 c         1 ICI      0.902600
      6 C6          1.5920   -1.2810    2.1140 c         1 ICI      0.918600
      7 O1         -0.8150   -0.6930   -0.6840 o         1 ICI     -0.893300
      8 O2         -0.4820    1.4390   -0.2060 o         1 ICI     -0.893300
      9 O3          3.9280    2.3360    2.0860 o         1 ICI     -0.905300
     10 O4          5.1090    1.6030    0.3740 o         1 ICI     -0.905300
     11 O5          1.7820   -2.4530    1.6480 o         1 ICI     -0.899800
     12 O6          1.1220   -1.1340    3.2870 o         1 ICI     -0.899800
     13 O7          1.8110   -1.2160   -0.8420 oh        1 ICI     -0.655800
     14 H2          2.0170    0.7870   -0.7020 h1        1 ICI      0.037700
     15 H3          1.5680    0.8710    1.8170 hc        1 ICI      0.068700
     16 H41         3.9070   -0.5770    0.4700 hc        1 ICI      0.018700
     17 H42         3.8830   -0.4090    2.2730 hc        1 ICI      0.018700
     18 HO7         1.3900   -1.9360   -0.3500 ho        1 ICI      0.427000
@<TRIPOS>BOND
     1    1    2 1   
     2    1    7 1   
     3    1    8 1   
     4    2    3 1   
     5    2   13 1   
     6    2   14 1   
     7    3    4 1   
     8    3    6 1   
     9    3   15 1   
    10    4    5 1   
    11    4   16 1   
    12    4   17 1   
    13    5    9 1   
    14    5   10 1   
    15    6   11 1   
    16    6   12 1   
    17   13   18 1   
@<TRIPOS>SUBSTRUCTURE
     1 ICI         1 TEMP              0 ****  ****    0 ROOT
