@<TRIPOS>MOLECULE
molecule
   86    88     1     0     0
SMALL
bcc


@<TRIPOS>ATOM
      1 O1           0.0000     0.0000     0.0000 oh         1 ICJ      -0.598800
      2 O2           1.8420    -1.1940     3.5390 oh         1 ICJ      -0.610800
      3 O3          -4.3120    -1.5170    -6.8080 oh         1 ICJ      -0.605800
      4 C01          1.4290     0.0000     0.0000 c3         1 ICJ       0.189300
      5 C02          1.9450     0.0000     1.4420 c3         1 ICJ      -0.115400
      6 C03          1.4840    -1.2710     2.1570 c3         1 ICJ       0.152100
      7 C04          2.1540    -2.4940     1.5240 c3         1 ICJ      -0.038200
      8 C05          1.8040    -2.5210     0.0510 ce         1 ICJ      -0.082200
      9 C06          1.3880    -3.6510    -0.5580 cf         1 ICJ      -0.118000
     10 C07          1.0580    -3.6380    -1.9850 cf         1 ICJ      -0.160000
     11 C08          0.6480    -4.7540    -2.5850 c2         1 ICJ      -0.094400
     12 C09          0.5010    -6.0730    -1.8410 c3         1 ICJ      -0.044200
     13 C10          1.9400    -1.2490    -0.6890 ce         1 ICJ      -0.078200
     14 C11         -0.8690    -6.6940    -2.1050 c3         1 ICJ      -0.078400
     15 C12         -1.2050    -6.7170    -3.6050 c3         1 ICJ      -0.065400
     16 C13         -1.1790    -5.2900    -4.1000 c3         1 ICJ      -0.061000
     17 C14          0.2900    -4.7980    -4.0410 c3         1 ICJ      -0.034500
     18 C15          0.1820    -3.4540    -4.7630 c3         1 ICJ      -0.079400
     19 C16         -0.7560    -3.7820    -5.9590 c3         1 ICJ      -0.083400
     20 C17         -1.5790    -5.0170    -5.5420 c3         1 ICJ      -0.054700
     21 C18         -2.0340    -4.4180    -3.1790 c3         1 ICJ      -0.091100
     22 C19          2.4860    -1.2030    -1.9050 c2         1 ICJ      -0.206000
     23 C20         -3.0720    -4.7000    -5.6280 c3         1 ICJ      -0.070700
     24 C21         -3.8810    -5.9400    -5.2440 c3         1 ICJ      -0.095100
     25 C22         -3.4240    -4.2840    -7.0570 c3         1 ICJ      -0.070700
     26 C23         -4.8880    -3.8430    -7.1150 c3         1 ICJ      -0.076400
     27 C24         -5.0790    -2.5900    -6.2590 c3         1 ICJ       0.146100
     28 C25         -6.5590    -2.2030    -6.2420 c3         1 ICJ      -0.104700
     29 C26         -6.7490    -0.9490    -5.3860 c3         1 ICJ      -0.089100
     30 C27         -7.0270    -1.9200    -7.6710 c3         1 ICJ      -0.089100
     31 C28         -3.2110    -5.4690    -8.0010 c3         1 ICJ      -0.079400
     32 C29         -3.4420    -5.0210    -9.4450 c3         1 ICJ      -0.083400
     33 C30         -3.2280    -6.2070   -10.3880 c3         1 ICJ      -0.084400
     34 C31         -3.4590    -5.7580   -11.8330 c3         1 ICJ      -0.092100
     35 HO1         -0.3140     0.8870    -0.0530 ho         1 ICJ       0.400000
     36 HO3         -4.1490    -0.8730    -6.1390 ho         1 ICJ       0.399000
     37 H01          1.7980     0.8770    -0.5170 h1         1 ICJ       0.036700
     38 H02          3.0270     0.0350     1.4360 hc         1 ICJ       0.054700
     39 H02A         1.5540     0.8660     1.9630 hc         1 ICJ       0.054700
     40 H03          0.4090    -1.3630     2.0640 h1         1 ICJ       0.051700
     41 H04          3.2280    -2.4220     1.6420 hc         1 ICJ       0.058200
     42 H04A         1.7890    -3.3960     2.0010 hc         1 ICJ       0.058200
     43 H06          1.2980    -4.5700     0.0100 ha         1 ICJ       0.134000
     44 H07          1.1490    -2.7190    -2.5530 ha         1 ICJ       0.147000
     45 H09          1.2710    -6.7570    -2.1750 hc         1 ICJ       0.048700
     46 H09A         0.6120    -5.8960    -0.7780 hc         1 ICJ       0.048700
     47 H11         -1.6230    -6.1150    -1.5850 hc         1 ICJ       0.043200
     48 H11A        -0.8740    -7.7090    -1.7280 hc         1 ICJ       0.043200
     49 H12         -0.4660    -7.3030    -4.1380 hc         1 ICJ       0.044700
     50 H12A        -2.1930    -7.1370    -3.7530 hc         1 ICJ       0.044700
     51 H14          0.9420    -5.4750    -4.5800 hc         1 ICJ       0.065700
     52 H15         -0.2670    -2.7090    -4.1180 hc         1 ICJ       0.047700
     53 H15A         1.1530    -3.1310    -5.1180 hc         1 ICJ       0.047700
     54 H16         -1.4170    -2.9450    -6.1520 hc         1 ICJ       0.047700
     55 H16A        -0.1680    -4.0090    -6.8400 hc         1 ICJ       0.047700
     56 H17         -1.3300    -5.8650    -6.1690 hc         1 ICJ       0.056700
     57 H18         -2.1860    -3.4490    -3.6370 hc         1 ICJ       0.040033
     58 H18A        -2.9930    -4.8960    -3.0180 hc         1 ICJ       0.040033
     59 H18B        -1.5280    -4.2930    -2.2290 hc         1 ICJ       0.040033
     60 H19          2.8420    -2.1120    -2.3740 ha         1 ICJ       0.123000
     61 H19A         2.5710    -0.2560    -2.4240 ha         1 ICJ       0.123000
     62 H20         -3.3090    -3.8900    -4.9480 hc         1 ICJ       0.059700
     63 H21         -4.9150    -5.8020    -5.5380 hc         1 ICJ       0.035700
     64 H21A        -3.4740    -6.8070    -5.7480 hc         1 ICJ       0.035700
     65 H21B        -3.8290    -6.0880    -4.1720 hc         1 ICJ       0.035700
     66 H22         -2.7880    -3.4620    -7.3610 hc         1 ICJ       0.070700
     67 H23         -5.1590    -3.6240    -8.1410 hc         1 ICJ       0.055700
     68 H23A        -5.5200    -4.6380    -6.7370 hc         1 ICJ       0.055700
     69 H24         -4.7470    -2.7900    -5.2470 h1         1 ICJ       0.033700
     70 H25         -7.1410    -3.0160    -5.8260 hc         1 ICJ       0.051700
     71 H26         -6.2020    -1.0590    -4.4580 hc         1 ICJ       0.036367
     72 H26A        -6.3770    -0.0850    -5.9240 hc         1 ICJ       0.036367
     73 H26B        -7.8020    -0.8150    -5.1710 hc         1 ICJ       0.036367
     74 H27         -7.0750    -2.8490    -8.2260 hc         1 ICJ       0.036367
     75 H27A        -6.3280    -1.2470    -8.1540 hc         1 ICJ       0.036367
     76 H27B        -8.0090    -1.4640    -7.6460 hc         1 ICJ       0.036367
     77 H28         -3.9090    -6.2590    -7.7520 hc         1 ICJ       0.042700
     78 H28A        -2.1970    -5.8370    -7.8950 hc         1 ICJ       0.042700
     79 H29         -2.7430    -4.2310    -9.6930 hc         1 ICJ       0.044200
     80 H29A        -4.4550    -4.6530    -9.5510 hc         1 ICJ       0.044200
     81 H30         -3.9260    -6.9970   -10.1390 hc         1 ICJ       0.038700
     82 H30A        -2.2140    -6.5740   -10.2820 hc         1 ICJ       0.038700
     83 H31         -4.4510    -5.3300   -11.9240 hc         1 ICJ       0.032033
     84 H31A        -3.3720    -6.6110   -12.4940 hc         1 ICJ       0.032033
     85 H31B        -2.7190    -5.0140   -12.1030 hc         1 ICJ       0.032033
     86 HO2          1.0620    -1.1090     4.0610 ho         1 ICJ       0.401000
@<TRIPOS>BOND
     1     1     4 1
     2     2     6 1
     3     3    27 1
     4     4     5 1
     5     4    13 1
     6     5     6 1
     7     6     7 1
     8     7     8 1
     9     8     9 2
    10     8    13 1
    11     9    10 1
    12    10    11 2
    13    11    12 1
    14    11    17 1
    15    12    14 1
    16    13    22 2
    17    14    15 1
    18    15    16 1
    19    16    17 1
    20    16    20 1
    21    16    21 1
    22    17    18 1
    23    18    19 1
    24    19    20 1
    25    20    23 1
    26    23    24 1
    27    23    25 1
    28    25    26 1
    29    25    31 1
    30    26    27 1
    31    27    28 1
    32    28    29 1
    33    28    30 1
    34    31    32 1
    35    32    33 1
    36    33    34 1
    37     1    35 1
    38     2    86 1
    39     3    36 1
    40     4    37 1
    41     5    38 1
    42     5    39 1
    43     6    40 1
    44     7    41 1
    45     7    42 1
    46     9    43 1
    47    10    44 1
    48    12    45 1
    49    12    46 1
    50    14    47 1
    51    14    48 1
    52    15    49 1
    53    15    50 1
    54    17    51 1
    55    18    52 1
    56    18    53 1
    57    19    54 1
    58    19    55 1
    59    20    56 1
    60    21    57 1
    61    21    58 1
    62    21    59 1
    63    22    60 1
    64    22    61 1
    65    23    62 1
    66    24    63 1
    67    24    64 1
    68    24    65 1
    69    25    66 1
    70    26    67 1
    71    26    68 1
    72    27    69 1
    73    28    70 1
    74    29    71 1
    75    29    72 1
    76    29    73 1
    77    30    74 1
    78    30    75 1
    79    30    76 1
    80    31    77 1
    81    31    78 1
    82    32    79 1
    83    32    80 1
    84    33    81 1
    85    33    82 1
    86    34    83 1
    87    34    84 1
    88    34    85 1
@<TRIPOS>SUBSTRUCTURE
     1 ICJ         1 TEMP              0 ****  ****    0 ROOT
