@<TRIPOS>MOLECULE
ICJ
   86    88     1     0     0
SMALL
bcc


@<TRIPOS>ATOM
      1 O1          0.9910    0.4510    0.2680 oh        1 ICJ     -0.589800
      2 O2          2.7040   -1.5050    3.7280 oh        1 ICJ     -0.599800
      3 O3         -4.8320   -1.7530   -7.9020 oh        1 ICJ     -0.599800
      4 C01         2.3470    0.0120    0.2950 c3        1 ICJ      0.186300
      5 C02         2.8570   -0.1430    1.7240 c3        1 ICJ     -0.146400
      6 C03         2.1700   -1.3090    2.4240 c3        1 ICJ      0.146100
      7 C04         2.4070   -2.6110    1.6630 c3        1 ICJ     -0.035200
      8 C05         1.9590   -2.4870    0.2440 ce        1 ICJ     -0.073200
      9 C06         1.1990   -3.4530   -0.3130 cf        1 ICJ     -0.108000
     10 C07         0.6800   -3.4250   -1.6600 cf        1 ICJ     -0.150000
     11 C08         0.3120   -4.4970   -2.3820 c2        1 ICJ     -0.082400
     12 C09         0.4720   -5.9170   -1.9470 c3        1 ICJ     -0.044200
     13 C10         2.4120   -1.2900   -0.4630 ce        1 ICJ     -0.070200
     14 C11        -0.7510   -6.7780   -2.2100 c3        1 ICJ     -0.073400
     15 C12        -1.3580   -6.5930   -3.5900 c3        1 ICJ     -0.067400
     16 C13        -1.6030   -5.1200   -3.8790 c3        1 ICJ     -0.040000
     17 C14        -0.2280   -4.4040   -3.7640 c3        1 ICJ     -0.036500
     18 C15        -0.4640   -3.0530   -4.4230 c3        1 ICJ     -0.074400
     19 C16        -1.4770   -3.3410   -5.5330 c3        1 ICJ     -0.078400
     20 C17        -1.9980   -4.7790   -5.3360 c3        1 ICJ     -0.053700
     21 C18        -2.6040   -4.5390   -2.8960 c3        1 ICJ     -0.082100
     22 C19         2.8890   -1.3170   -1.7140 c2        1 ICJ     -0.192000
     23 C20        -3.4760   -4.9070   -5.6920 c3        1 ICJ     -0.053700
     24 C21        -3.9990   -6.3080   -5.4450 c3        1 ICJ     -0.090100
     25 C22        -3.7290   -4.4790   -7.1480 c3        1 ICJ     -0.064700
     26 C23        -5.1720   -4.0210   -7.3300 c3        1 ICJ     -0.073400
     27 C24        -5.3760   -2.5770   -6.8760 c3        1 ICJ      0.142100
     28 C25        -6.8590   -2.2700   -6.6170 c3        1 ICJ     -0.103700
     29 C26        -7.0180   -0.9220   -5.9470 c3        1 ICJ     -0.092600
     30 C27        -7.6690   -2.3280   -7.8940 c3        1 ICJ     -0.092600
     31 C28        -3.3910   -5.5930   -8.1310 c3        1 ICJ     -0.072400
     32 C29        -3.0880   -5.0600   -9.5160 c3        1 ICJ     -0.081400
     33 C30        -2.8040   -6.1880  -10.4860 c3        1 ICJ     -0.080400
     34 C31        -2.4880   -5.6650  -11.8630 c3        1 ICJ     -0.092100
     35 HO1         0.9500    1.2480    0.8100 ho        1 ICJ      0.396000
     36 HO3        -5.0170   -0.8400   -7.6530 ho        1 ICJ      0.398000
     37 H01         2.9800    0.7880   -0.2300 h1        1 ICJ      0.034700
     38 H02         2.6710    0.8030    2.2960 hc        1 ICJ      0.052700
     39 H02A        3.9630   -0.3200    1.7050 hc        1 ICJ      0.052700
     40 H03         1.0650   -1.1030    2.4950 h1        1 ICJ      0.048700
     41 H04         3.5030   -2.8560    1.6880 hc        1 ICJ      0.062200
     42 H04A        1.8660   -3.4410    2.1880 hc        1 ICJ      0.062200
     43 H06         0.9140   -4.3250    0.3030 ha        1 ICJ      0.124000
     44 H07         0.5780   -2.4130   -2.1000 ha        1 ICJ      0.137000
     45 H09         0.7220   -5.9770   -0.8550 hc        1 ICJ      0.046700
     46 H09A        1.3490   -6.3460   -2.5070 hc        1 ICJ      0.046700
     47 H11        -1.5320   -6.5510   -1.4360 hc        1 ICJ      0.040200
     48 H11A       -0.4640   -7.8560   -2.0820 hc        1 ICJ      0.040200
     49 H12        -2.3190   -7.1680   -3.6450 hc        1 ICJ      0.041700
     50 H12A       -0.6690   -7.0160   -4.3670 hc        1 ICJ      0.041700
     51 H14         0.5000   -4.9680   -4.4230 hc        1 ICJ      0.053700
     52 H15        -0.8830   -2.3160   -3.6930 hc        1 ICJ      0.045700
     53 H15A        0.4840   -2.6280   -4.8330 hc        1 ICJ      0.045700
     54 H16        -0.9970   -3.2410   -6.5380 hc        1 ICJ      0.043700
     55 H16A       -2.3200   -2.6070   -5.4830 hc        1 ICJ      0.043700
     56 H17        -1.4190   -5.4680   -6.0120 hc        1 ICJ      0.047700
     57 H18        -3.5320   -5.1590   -2.8660 hc        1 ICJ      0.037033
     58 H18A       -2.1680   -4.5030   -1.8680 hc        1 ICJ      0.037033
     59 H18B       -2.8800   -3.4970   -3.1920 hc        1 ICJ      0.037033
     60 H19         2.9760   -2.2510   -2.2850 ha        1 ICJ      0.120000
     61 H19A        3.2230   -0.4110   -2.2350 ha        1 ICJ      0.120000
     62 H20        -4.0520   -4.1990   -5.0290 hc        1 ICJ      0.047700
     63 H21        -4.9750   -6.4600   -5.9680 hc        1 ICJ      0.033700
     64 H21A       -4.1640   -6.4790   -4.3540 hc        1 ICJ      0.033700
     65 H21B       -3.2780   -7.0750   -5.8180 hc        1 ICJ      0.033700
     66 H22        -3.0680   -3.5970   -7.3860 hc        1 ICJ      0.066700
     67 H23        -5.4530   -4.0920   -8.4150 hc        1 ICJ      0.053200
     68 H23A       -5.8660   -4.6840   -6.7520 hc        1 ICJ      0.053200
     69 H24        -4.8010   -2.3880   -5.9230 h1        1 ICJ      0.032700
     70 H25        -7.2410   -3.0590   -5.9100 hc        1 ICJ      0.054700
     71 H26        -6.3800   -0.8590   -5.0330 hc        1 ICJ      0.036867
     72 H26A       -8.0830   -0.7660   -5.6470 hc        1 ICJ      0.036867
     73 H26B       -6.7300   -0.0950   -6.6400 hc        1 ICJ      0.036867
     74 H27        -7.2330   -1.6410   -8.6600 hc        1 ICJ      0.036867
     75 H27A       -7.6630   -3.3650   -8.3080 hc        1 ICJ      0.036867
     76 H27B       -8.7250   -2.0260   -7.6980 hc        1 ICJ      0.036867
     77 H28        -4.2440   -6.3200   -8.1850 hc        1 ICJ      0.038700
     78 H28A       -2.4970   -6.1600   -7.7590 hc        1 ICJ      0.038700
     79 H29        -2.2010   -4.3750   -9.4680 hc        1 ICJ      0.044700
     80 H29A       -3.9520   -4.4510   -9.8910 hc        1 ICJ      0.044700
     81 H30        -1.9420   -6.7980  -10.1080 hc        1 ICJ      0.036200
     82 H30A       -3.6930   -6.8700  -10.5370 hc        1 ICJ      0.036200
     83 H31        -3.3450   -5.0730  -12.2660 hc        1 ICJ      0.032367
     84 H31A       -2.2840   -6.5110  -12.5630 hc        1 ICJ      0.032367
     85 H31B       -1.5880   -5.0040  -11.8370 hc        1 ICJ      0.032367
     86 HO2         2.5430   -0.6900    4.2180 ho        1 ICJ      0.398000
@<TRIPOS>BOND
     1    1    4 1   
     2    1   35 1   
     3    2    6 1   
     4    2   86 1   
     5    3   27 1   
     6    3   36 1   
     7    4    5 1   
     8    4   13 1   
     9    4   37 1   
    10    5    6 1   
    11    5   38 1   
    12    5   39 1   
    13    6    7 1   
    14    6   40 1   
    15    7    8 1   
    16    7   41 1   
    17    7   42 1   
    18    8    9 2   
    19    8   13 1   
    20    9   10 1   
    21    9   43 1   
    22   10   11 2   
    23   10   44 1   
    24   11   12 1   
    25   11   17 1   
    26   12   14 1   
    27   12   45 1   
    28   12   46 1   
    29   13   22 2   
    30   14   15 1   
    31   14   47 1   
    32   14   48 1   
    33   15   16 1   
    34   15   49 1   
    35   15   50 1   
    36   16   17 1   
    37   16   20 1   
    38   16   21 1   
    39   17   18 1   
    40   17   51 1   
    41   18   19 1   
    42   18   52 1   
    43   18   53 1   
    44   19   20 1   
    45   19   54 1   
    46   19   55 1   
    47   20   23 1   
    48   20   56 1   
    49   21   57 1   
    50   21   58 1   
    51   21   59 1   
    52   22   60 1   
    53   22   61 1   
    54   23   24 1   
    55   23   25 1   
    56   23   62 1   
    57   24   63 1   
    58   24   64 1   
    59   24   65 1   
    60   25   26 1   
    61   25   31 1   
    62   25   66 1   
    63   26   27 1   
    64   26   67 1   
    65   26   68 1   
    66   27   28 1   
    67   27   69 1   
    68   28   29 1   
    69   28   30 1   
    70   28   70 1   
    71   29   71 1   
    72   29   72 1   
    73   29   73 1   
    74   30   74 1   
    75   30   75 1   
    76   30   76 1   
    77   31   32 1   
    78   31   77 1   
    79   31   78 1   
    80   32   33 1   
    81   32   79 1   
    82   32   80 1   
    83   33   34 1   
    84   33   81 1   
    85   33   82 1   
    86   34   83 1   
    87   34   84 1   
    88   34   85 1   
@<TRIPOS>SUBSTRUCTURE
     1 ICJ         1 TEMP              0 ****  ****    0 ROOT
