@<TRIPOS>MOLECULE
ICL
   47    47     1     0     0
SMALL
bcc


@<TRIPOS>ATOM
      1 C1           0.0000     0.0000     0.0000 c          1 ICL       0.666500
      2 O1           1.2130     0.0000     0.0000 o          1 ICL      -0.544100
      3 C2          -0.7320     0.0000     1.2710 ca         1 ICL      -0.250600
      4 C3          -0.0360     0.0010     2.4860 ca         1 ICL       0.031400
      5 Cl           1.6990    -0.0070     2.4960 cl         1 ICL       0.032600
      6 C4          -0.7320    -0.0010     3.6760 ca         1 ICL      -0.135000
      7 C5          -2.1180     0.0050     3.6750 ca         1 ICL      -0.034000
      8 C6          -2.8190     0.0110     2.4860 ca         1 ICL      -0.140000
      9 C7          -2.1390     0.0130     1.2770 ca         1 ICL      -0.039400
     10 N1          -2.8430     0.0200     0.0780 ns         1 ICL      -0.022100
     11 C8          -4.0480     0.6180     0.0080 c          1 ICL       0.558100
     12 O2          -4.5640     1.0630     1.0110 o          1 ICL      -0.629100
     13 C9          -4.7560     0.7340    -1.3170 c3         1 ICL      -0.042300
     14 C10         -4.2360     1.9610    -2.0670 c3         1 ICL      -0.057700
     15 C11         -4.8490     2.0010    -3.4690 c3         1 ICL      -0.008600
     16 C12         -4.6260     3.2280    -1.3040 c3         1 ICL      -0.008600
     17 N2          -6.1970     0.8750    -1.0910 ns         1 ICL      -0.156900
     18 C13         -7.0710     0.4090    -2.0030 c          1 ICL       0.691100
     19 O3          -6.6650    -0.1290    -3.0140 o          1 ICL      -0.673000
     20 O4          -8.3950     0.5380    -1.7950 os         1 ICL      -0.422900
     21 C14         -9.3370     0.0350    -2.7780 c3         1 ICL       0.200800
     22 C15        -10.7650     0.3070    -2.3020 c3         1 ICL      -0.027767
     23 C16         -9.1040     0.7410    -4.1150 c3         1 ICL      -0.027767
     24 C17         -9.1360    -1.4700    -2.9530 c3         1 ICL      -0.027767
     25 H1          -0.5420    -0.0010    -0.9380 h4         1 ICL      -0.046800
     26 H4          -0.1940    -0.0040     4.6160 ha         1 ICL       0.119000
     27 H5          -2.6560     0.0030     4.6160 ha         1 ICL       0.107000
     28 H6          -3.9020     0.0190     2.4960 ha         1 ICL       0.159000
     29 HN1         -2.4780    -0.4630    -0.7190 hn         1 ICL       0.177500
     30 H9          -4.5680    -0.1560    -1.9050 h1         1 ICL       0.065700
     31 H10         -3.1570     1.9050    -2.1470 hc         1 ICL       0.024700
     32 H111        -4.3090     2.7150    -4.0790 hc         1 ICL       0.014700
     33 H112        -4.7840     1.0180    -3.9190 hc         1 ICL       0.014700
     34 H113        -5.8880     2.2980    -3.4000 hc         1 ICL       0.014700
     35 H121        -4.0970     3.2580    -0.3590 hc         1 ICL       0.014700
     36 H122        -4.3630     4.1000    -1.8920 hc         1 ICL       0.014700
     37 H123        -5.6930     3.2250    -1.1200 hc         1 ICL       0.014700
     38 HN2         -6.5320     1.2790    -0.2390 hn         1 ICL       0.202500
     39 H151       -10.9320    -0.1940    -1.3560 hc         1 ICL       0.018922
     40 H152       -11.4680    -0.0660    -3.0370 hc         1 ICL       0.018922
     41 H153       -10.9070     1.3740    -2.1760 hc         1 ICL       0.018922
     42 H161        -9.9980     0.6670    -4.7230 hc         1 ICL       0.018922
     43 H162        -8.2760     0.2700    -4.6320 hc         1 ICL       0.018922
     44 H163        -8.8730     1.7840    -3.9380 hc         1 ICL       0.018922
     45 H171        -8.3160    -1.6480    -3.6380 hc         1 ICL       0.018922
     46 H172       -10.0420    -1.9110    -3.3520 hc         1 ICL       0.018922
     47 H173        -8.9090    -1.9180    -1.9930 hc         1 ICL       0.018922
@<TRIPOS>BOND
     1     1     2 2   
     2     1     3 1   
     3     1    25 1   
     4     3     4 ar  
     5     3     9 ar  
     6     4     5 1   
     7     4     6 ar  
     8     6     7 ar  
     9     6    26 1   
    10     7     8 ar  
    11     7    27 1   
    12     8     9 ar  
    13     8    28 1   
    14     9    10 1   
    15    10    11 1   
    16    10    29 1   
    17    11    12 2   
    18    11    13 1   
    19    13    14 1   
    20    13    17 1   
    21    13    30 1   
    22    14    15 1   
    23    14    16 1   
    24    14    31 1   
    25    15    32 1   
    26    15    33 1   
    27    15    34 1   
    28    16    35 1   
    29    16    36 1   
    30    16    37 1   
    31    17    18 1   
    32    17    38 1   
    33    18    19 2   
    34    18    20 1   
    35    20    21 1   
    36    21    22 1   
    37    21    23 1   
    38    21    24 1   
    39    22    39 1   
    40    22    40 1   
    41    22    41 1   
    42    23    42 1   
    43    23    43 1   
    44    23    44 1   
    45    24    45 1   
    46    24    46 1   
    47    24    47 1   
@<TRIPOS>SUBSTRUCTURE
     1 ICL         1 TEMP              0 ****  ****    0 ROOT
