@<TRIPOS>MOLECULE
ICN
   19    18     1     0     0
SMALL
bcc


@<TRIPOS>ATOM
      1 C1           0.0000     0.0000     0.0000 c3         1 ICN      -0.017600
      2 C2           1.5300     0.0000     0.0000 c3         1 ICN      -0.057700
      3 C3           2.0400     1.2490    -0.7220 c3         1 ICN      -0.017600
      4 C4           2.0410     0.0000     1.4420 c3         1 ICN       0.300900
      5 C5           1.5320     1.2500     2.1630 c3         1 ICN      -0.054100
      6 O6           3.4700     0.0000     1.4410 oh         1 ICN      -0.556800
      7 C7           1.5500    -1.2010     2.1360 c1         1 ICN       0.158700
      8 N8           1.1540    -2.1200     2.6750 n1         1 ICN      -0.355800
      9 H11         -0.5340     0.7540     0.5660 hc         1 ICN       0.006867
     10 H12         -0.3860    -0.2030    -0.9920 hc         1 ICN       0.006867
     11 H13         -0.2800    -0.9690     0.3960 hc         1 ICN       0.006867
     12 H2           2.0900    -0.5280    -0.7630 hc         1 ICN       0.073700
     13 H31          1.7780     1.5500    -1.7290 hc         1 ICN       0.006867
     14 H32          3.1040     1.1570    -0.9090 hc         1 ICN       0.006867
     15 H33          2.0530     2.1250    -0.0840 hc         1 ICN       0.006867
     16 H51          0.5560     0.7900     2.2590 hc         1 ICN       0.028700
     17 H52          1.7930     0.9860     3.1800 hc         1 ICN       0.028700
     18 H53          1.5390     2.2920     1.8640 hc         1 ICN       0.028700
     19 H6           3.4640    -0.0820     2.3810 ho         1 ICN       0.397000
@<TRIPOS>BOND
     1     1     2 1   
     2     1     9 1   
     3     1    10 1   
     4     1    11 1   
     5     2     3 1   
     6     2     4 1   
     7     2    12 1   
     8     3    13 1   
     9     3    14 1   
    10     3    15 1   
    11     4     5 1   
    12     4     6 1   
    13     4     7 1   
    14     5    16 1   
    15     5    17 1   
    16     5    18 1   
    17     6    19 1   
    18     7     8 3   
@<TRIPOS>SUBSTRUCTURE
     1 ICN         1 TEMP              0 ****  ****    0 ROOT
