@<TRIPOS>MOLECULE
molecule
   18    19     1     0     0
SMALL
bcc


@<TRIPOS>ATOM
      1 CAA          0.0000     0.0000     0.0000 ca         1 ICO      -0.071800
      2 CAD          1.3920     0.0000     0.0000 ca         1 ICO      -0.049000
      3 CAI          2.0730     0.0000     1.1980 ca         1 ICO      -0.195000
      4 CAJ          1.3780     0.0070     2.3990 ca         1 ICO      -0.131000
      5 CAF          0.0000     0.0140     2.4120 ca         1 ICO      -0.167000
      6 CAB         -0.7050     0.0130     1.2140 ca         1 ICO      -0.063200
      7 NAE         -2.0510     0.0190     0.9110 na         1 ICO      -0.197400
      8 CAG         -2.2340     0.0160    -0.4310 cc         1 ICO      -0.110100
      9 CAC         -1.0240     0.0080    -1.0620 cd         1 ICO      -0.152400
     10 CAH         -0.7880     0.0030    -2.5100 c          1 ICO       0.908800
     11 OAL         -1.8330     0.0070    -3.3630 o          1 ICO      -0.846800
     12 OAK          0.3480    -0.0040    -2.9410 o          1 ICO      -0.846800
     13 HAD          1.9370    -0.0050    -0.9360 ha         1 ICO       0.161000
     14 HAI          3.1570    -0.0050     1.2020 ha         1 ICO       0.109000
     15 HAJ          1.9240     0.0070     3.3350 ha         1 ICO       0.104000
     16 HAF         -0.5330     0.0190     3.3550 ha         1 ICO       0.100000
     17 HAE         -2.7890     0.0250     1.5870 hn         1 ICO       0.268700
     18 HAG         -3.1960     0.0190    -0.9290 h4         1 ICO       0.178000
@<TRIPOS>BOND
     1     1     2 ar
     2     1     6 ar
     3     1     9 1
     4     2     3 ar
     5     2    13 1
     6     3     4 ar
     7     3    14 1
     8     4     5 ar
     9     4    15 1
    10     5     6 ar
    11     5    16 1
    12     6     7 1
    13     7     8 1
    14     7    17 1
    15     8     9 2
    16     8    18 1
    17     9    10 1
    18    10    11 1
    19    10    12 1
@<TRIPOS>SUBSTRUCTURE
     1 ICO         1 TEMP              0 ****  ****    0 ROOT
