@<TRIPOS>MOLECULE
ICO
   18    19     1     0     0
SMALL
bcc


@<TRIPOS>ATOM
      1 CAA        -0.0070    0.0240   -0.0230 ca        1 ICO     -0.061800
      2 CAD         1.3840    0.0010   -0.0350 ca        1 ICO     -0.061000
      3 CAI         2.0620   -0.0060    1.1810 ca        1 ICO     -0.188000
      4 CAJ         1.3700    0.0150    2.4000 ca        1 ICO     -0.136000
      5 CAF        -0.0200    0.0490    2.4500 ca        1 ICO     -0.168000
      6 CAB        -0.7170    0.0550    1.2370 ca        1 ICO     -0.077200
      7 NAE        -2.0950    0.1630    0.9670 na        1 ICO     -0.202400
      8 CAG        -2.2450    0.0610   -0.4400 cc        1 ICO     -0.137100
      9 CAC        -1.0130    0.0250   -1.0740 cd        1 ICO     -0.137400
     10 CAH        -0.7680   -0.0150   -2.5550 c         1 ICO      0.927800
     11 OAL        -1.7760   -0.0310   -3.3190 o         1 ICO     -0.837300
     12 OAK         0.4280   -0.0350   -2.9660 o         1 ICO     -0.837300
     13 HAD         1.9010   -0.0120   -1.0100 ha        1 ICO      0.176000
     14 HAI         3.1600   -0.0280    1.1900 ha        1 ICO      0.109000
     15 HAJ         1.9400    0.0050    3.3400 ha        1 ICO      0.102000
     16 HAF        -0.5490    0.0710    3.4110 ha        1 ICO      0.108000
     17 HAE        -2.7610   -0.2290    1.5830 hn        1 ICO      0.252700
     18 HAG        -3.2370    0.0770   -0.8950 h4        1 ICO      0.167000
@<TRIPOS>BOND
     1    1    2 ar  
     2    1    6 ar  
     3    1    9 1   
     4    2    3 ar  
     5    2   13 1   
     6    3    4 ar  
     7    3   14 1   
     8    4    5 ar  
     9    4   15 1   
    10    5    6 ar  
    11    5   16 1   
    12    6    7 1   
    13    7    8 1   
    14    7   17 1   
    15    8    9 2   
    16    8   18 1   
    17    9   10 1   
    18   10   11 1   
    19   10   12 1   
@<TRIPOS>SUBSTRUCTURE
     1 ICO         1 TEMP              0 ****  ****    0 ROOT
