@<TRIPOS>MOLECULE
ICP
   16    16     1     0     0
SMALL
bcc


@<TRIPOS>ATOM
      1 N1A          0.0000     0.0000     0.0000 nc         1 ICP      -0.623000
      2 C2A          1.3270     0.0000     0.0000 cc         1 ICP       0.605300
      3 CM2          2.0300     0.0030    -1.3330 c3         1 ICP      -0.023400
      4 N3A          2.0630     0.0000     1.0760 nd         1 ICP      -0.661000
      5 C4A          1.5070    -0.0030     2.3070 cd         1 ICP       0.586600
      6 N4A          2.2490    -0.0020     3.3910 n2         1 ICP      -0.631100
      7 C5A          0.0220    -0.0070     2.3880 cd         1 ICP      -0.365200
      8 C6A         -0.7030    -0.0070     1.1080 cd         1 ICP       0.543500
      9 C7A         -0.6300    -0.0100     3.5780 c2         1 ICP      -0.009000
     10 HM21         2.8680     0.6870    -1.2970 hc         1 ICP       0.021033
     11 HM22         1.3380     0.3180    -2.1050 hc         1 ICP       0.021033
     12 HM23         2.3870    -0.9960    -1.5540 hc         1 ICP       0.021033
     13 HN4          3.2470     0.0010     3.3150 hn         1 ICP       0.333400
     14 H6A1        -1.7860    -0.0080     1.0810 h4         1 ICP      -0.007200
     15 H7A1        -0.0670    -0.0100     4.5040 ha         1 ICP       0.094000
     16 H7A2        -1.7130    -0.0300     3.6030 ha         1 ICP       0.094000
@<TRIPOS>BOND
     1     1     2 1   
     2     1     8 2   
     3     2     3 1   
     4     2     4 2   
     5     3    10 1   
     6     3    11 1   
     7     3    12 1   
     8     4     5 1   
     9     5     6 2   
    10     5     7 1   
    11     6    13 1   
    12     7     8 1   
    13     7     9 2   
    14     8    14 1   
    15     9    15 1   
    16     9    16 1   
@<TRIPOS>SUBSTRUCTURE
     1 ICP         1 TEMP              0 ****  ****    0 ROOT
