@<TRIPOS>MOLECULE
molecule
   16    16     1     0     0
SMALL
bcc


@<TRIPOS>ATOM
      1 N1A          0.0000     0.0000     0.0000 nc         1 ICP      -0.733000
      2 C2A          1.3270     0.0000     0.0000 cc         1 ICP       0.682300
      3 CM2          2.0300     0.0030    -1.3330 c3         1 ICP      -0.109400
      4 N3A          2.0630     0.0000     1.0760 nd         1 ICP      -0.699000
      5 C4A          1.5070    -0.0030     2.3070 cd         1 ICP       0.691600
      6 N4A          2.2490    -0.0020     3.3910 n2         1 ICP      -0.749100
      7 C5A          0.0220    -0.0070     2.3880 cd         1 ICP      -0.410200
      8 C6A         -0.7030    -0.0070     1.1080 cd         1 ICP       0.555500
      9 C7A         -0.6300    -0.0100     3.5780 c2         1 ICP      -0.116000
     10 HM21         2.3980    -0.9930    -1.5490 hc         1 ICP       0.063700
     11 HM22         2.8610     0.6960    -1.3010 hc         1 ICP       0.063700
     12 HM23         1.3350     0.3060    -2.1070 hc         1 ICP       0.063700
     13 HN4          1.8160    -0.0050     4.2940 hn         1 ICP       0.398400
     14 H6A1        -1.7860    -0.0080     1.0810 h4         1 ICP       0.041800
     15 H7A1        -1.7130    -0.0130     3.6030 ha         1 ICP       0.127500
     16 H7A2        -0.0670    -0.0100     4.5040 ha         1 ICP       0.127500
@<TRIPOS>BOND
     1     1     2 1
     2     1     8 2
     3     2     3 1
     4     2     4 2
     5     3    10 1
     6     3    11 1
     7     3    12 1
     8     4     5 1
     9     5     6 2
    10     5     7 1
    11     6    13 1
    12     7     8 1
    13     7     9 2
    14     8    14 1
    15     9    15 1
    16     9    16 1
@<TRIPOS>SUBSTRUCTURE
     1 ICP         1 TEMP              0 ****  ****    0 ROOT
