@<TRIPOS>MOLECULE
molecule
   33    34     1     0     0
SMALL
bcc


@<TRIPOS>ATOM
      1 O6'          0.0000     0.0000     0.0000 o          1 ICR      -0.915833
      2 P            1.6100     0.0000     0.0000 p5         1 ICR       1.162900
      3 O7'          2.1030     0.0000     1.3950 o          1 ICR      -0.915833
      4 O8'          2.1460    -1.3140    -0.7600 o          1 ICR      -0.915833
      5 O5'          2.1460     1.3150    -0.7590 os         1 ICR      -0.527200
      6 C5'          3.5690     1.3190    -0.6240 c3         1 ICR       0.167400
      7 C4'          4.1450     2.5490    -1.3270 c3         1 ICR       0.126100
      8 O4'          3.7330     3.7570    -0.6460 os         1 ICR      -0.370600
      9 C3'          5.6870     2.5550    -1.2380 c3         1 ICR       0.084100
     10 O3'          6.2610     2.0490    -2.4440 oh         1 ICR      -0.587800
     11 C2'          6.0490     4.0460    -1.0500 c3         1 ICR       0.077100
     12 O2'          6.8600     4.5040    -2.1340 oh         1 ICR      -0.587800
     13 C1'          4.6840     4.7670    -1.0500 c3         1 ICR       0.423300
     14 N1           4.6920     5.8750    -0.0920 nh         1 ICR      -0.784600
     15 C2           4.8130     5.7380     1.2620 c2         1 ICR       0.593100
     16 N3           4.7930     6.8590     1.8920 n2         1 ICR      -0.617900
     17 C4           4.6410     7.9370     0.9040 c3         1 ICR      -0.038800
     18 C7           5.8290     8.8640     0.9460 c          1 ICR       0.921600
     19 O9           5.7390    10.0940     0.4150 o          1 ICR      -0.840300
     20 O8           6.8610     8.5000     1.4560 o          1 ICR      -0.840300
     21 C5           4.5840     7.2080    -0.4250 c2         1 ICR       0.641200
     22 N6           4.4540     7.7210    -1.6040 n2         1 ICR      -0.857100
     23 H5'1         3.9770     0.4220    -1.0730 h1         1 ICR       0.047200
     24 H5'2         3.8310     1.3480     0.4270 h1         1 ICR       0.047200
     25 H4'          3.8310     2.5780    -2.3640 h1         1 ICR       0.062700
     26 H3'          6.0170     1.9780    -0.3830 h1         1 ICR       0.049700
     27 H1           6.8810     1.3700    -2.2360 ho         1 ICR       0.382000
     28 H2'          6.5530     4.1940    -0.1030 h1         1 ICR       0.045700
     29 H3           7.7410     4.6460    -1.8290 ho         1 ICR       0.388000
     30 H1'          4.4490     5.1250    -2.0460 h2         1 ICR       0.069700
     31 H2           5.3530     4.8940     1.6750 h5         1 ICR       0.049800
     32 H4           3.7210     8.4810     1.0770 h1         1 ICR       0.088700
     33 HN6          4.4230     7.1250    -2.4080 hn         1 ICR       0.371400
@<TRIPOS>BOND
     1     1     2 1
     2     2     3 1
     3     2     4 1
     4     2     5 1
     5     5     6 1
     6     6     7 1
     7     6    23 1
     8     6    24 1
     9     7     8 1
    10     7     9 1
    11     7    25 1
    12     8    13 1
    13     9    10 1
    14     9    11 1
    15     9    26 1
    16    10    27 1
    17    11    12 1
    18    11    13 1
    19    11    28 1
    20    12    29 1
    21    13    14 1
    22    13    30 1
    23    14    15 1
    24    14    21 1
    25    15    16 2
    26    15    31 1
    27    16    17 1
    28    17    18 1
    29    17    21 1
    30    17    32 1
    31    18    19 1
    32    18    20 1
    33    21    22 2
    34    22    33 1
@<TRIPOS>SUBSTRUCTURE
     1 ICR         1 TEMP              0 ****  ****    0 ROOT
