@<TRIPOS>MOLECULE
ICT
   18    17     1     0     0
SMALL
bcc


@<TRIPOS>ATOM
      1 C1         -0.0720   -0.3550   -0.0960 c         1 ICT      0.894600
      2 O1         -0.8390   -0.2150    0.9100 o         1 ICT     -0.893300
      3 O2         -0.5250   -0.7980   -1.1990 o         1 ICT     -0.893300
      4 C2          1.4440   -0.1090    0.0630 c3        1 ICT      0.067100
      5 O7          1.7900   -0.1810    1.4410 oh        1 ICT     -0.655800
      6 C3          2.0020    1.1550   -0.6070 c3        1 ICT     -0.154700
      7 C4          3.5270    1.0880   -0.6890 c3        1 ICT     -0.146400
      8 C5          4.1740    0.3640   -1.8690 c         1 ICT      0.902600
      9 O3          3.9230    0.6920   -3.0710 o         1 ICT     -0.905300
     10 O4          5.0730   -0.5110   -1.6250 o         1 ICT     -0.905300
     11 C6          1.6390    2.4680    0.1190 c         1 ICT      0.918600
     12 O5          1.8350    2.5990    1.3720 o         1 ICT     -0.899800
     13 O6          1.1940    3.4490   -0.5590 o         1 ICT     -0.899800
     14 H2          1.9700   -0.9980   -0.3950 h1        1 ICT      0.037700
     15 HO7         1.3900    0.6020    1.8490 ho        1 ICT      0.427000
     16 H3          1.5780    1.2010   -1.6460 hc        1 ICT      0.068700
     17 H41         3.9060    0.6240    0.2600 hc        1 ICT      0.018700
     18 H42         3.9210    2.1400   -0.7310 hc        1 ICT      0.018700
@<TRIPOS>BOND
     1    1    2 1   
     2    1    3 1   
     3    1    4 1   
     4    4    5 1   
     5    4    6 1   
     6    4   14 1   
     7    5   15 1   
     8    6    7 1   
     9    6   11 1   
    10    6   16 1   
    11    7    8 1   
    12    7   17 1   
    13    7   18 1   
    14    8    9 1   
    15    8   10 1   
    16   11   12 1   
    17   11   13 1   
@<TRIPOS>SUBSTRUCTURE
     1 ICT         1 TEMP              0 ****  ****    0 ROOT
