@<TRIPOS>MOLECULE
molecule
   18    17     1     0     0
SMALL
bcc


@<TRIPOS>ATOM
      1 C1           0.0000     0.0000     0.0000 c          1 ICT       0.907600
      2 O1          -0.6050     0.0010     1.0450 o          1 ICT      -0.895800
      3 O2          -0.6710     0.0000    -1.1630 o          1 ICT      -0.895800
      4 C2           1.5070     0.0000     0.0000 c3         1 ICT       0.064100
      5 O7           1.9820     0.0000     1.3470 oh         1 ICT      -0.590800
      6 C3           2.0160     1.2490    -0.7200 c3         1 ICT      -0.121700
      7 C4           3.5460     1.2480    -0.7210 c3         1 ICT      -0.157400
      8 C5           4.0500     0.1040    -1.5600 c          1 ICT       0.887600
      9 O3           3.2690    -0.5680    -2.1940 o          1 ICT      -0.904800
     10 O4           5.3630    -0.1690    -1.6070 o          1 ICT      -0.904800
     11 C6           1.5150     2.4790    -0.0100 c          1 ICT       0.900600
     12 O5           0.7540     2.3700     0.9210 o          1 ICT      -0.888300
     13 O6           1.9130     3.6960    -0.4130 o          1 ICT      -0.888300
     14 H2           1.8680    -0.8840    -0.5110 h1         1 ICT       0.029700
     15 HO7          2.0780    -0.8890     1.6470 ho         1 ICT       0.330000
     16 H3           1.6550     1.2490    -1.7410 hc         1 ICT       0.072700
     17 H41          3.9070     2.1830    -1.1310 hc         1 ICT       0.028700
     18 H42          3.9070     1.1370     0.2950 hc         1 ICT       0.028700
@<TRIPOS>BOND
     1     1     2 1
     2     1     3 1
     3     1     4 1
     4     4     5 1
     5     4     6 1
     6     4    14 1
     7     5    15 1
     8     6     7 1
     9     6    11 1
    10     6    16 1
    11     7     8 1
    12     7    17 1
    13     7    18 1
    14     8     9 1
    15     8    10 1
    16    11    12 1
    17    11    13 1
@<TRIPOS>SUBSTRUCTURE
     1 ICT         1 TEMP              0 ****  ****    0 ROOT
