@<TRIPOS>MOLECULE
ICU
   31    31     1     0     0
SMALL
bcc


@<TRIPOS>ATOM
      1 C1           0.0000     0.0000     0.0000 c          1 ICU       0.975200
      2 O1           1.2150     0.0000     0.0000 o          1 ICU      -0.873800
      3 OXT         -0.6730     0.0000     1.1660 o          1 ICU      -0.873800
      4 C2          -0.7380     0.0010    -1.2790 ca         1 ICU      -0.076600
      5 C3          -2.1290     0.1220    -1.2840 ca         1 ICU      -0.085000
      6 C4          -2.8140     0.1200    -2.4890 ca         1 ICU      -0.003400
      7 N1          -4.2070     0.2350    -2.4990 nv         1 ICU      -0.543200
      8 C5          -2.1170     0.0070    -3.6850 ca         1 ICU      -0.156000
      9 C6          -0.7400    -0.1070    -3.6800 ca         1 ICU      -0.102000
     10 C7          -0.0470    -0.1070    -2.4860 ca         1 ICU      -0.099300
     11 C8           1.4540    -0.2300    -2.4870 c3         1 ICU       0.171400
     12 O2           1.8820    -0.9250    -3.6870 os         1 ICU      -0.408900
     13 C9           2.9980    -1.6720    -3.6690 c          1 ICU       0.697100
     14 O3           3.6450    -1.7660    -2.6540 o          1 ICU      -0.582000
     15 C10          3.4420    -2.3930    -4.9160 c3         1 ICU      -0.038100
     16 C11          2.0710     1.1430    -2.4550 c          1 ICU       0.719100
     17 O4           2.7980     1.4990    -3.3520 o          1 ICU      -0.643000
     18 O5           1.8140     1.9700    -1.4290 os         1 ICU      -0.347900
     19 C12          2.4090     3.2950    -1.3990 c3         1 ICU       0.262700
     20 H3          -2.6760     0.1190    -0.3500 ha         1 ICU       0.136000
     21 HN11        -4.6420     1.0790    -2.1820 hn         1 ICU       0.257800
     22 HN12        -4.7700    -0.5290    -2.8170 hn         1 ICU       0.257800
     23 H5          -2.6550     0.0060    -4.6260 ha         1 ICU       0.089000
     24 H6          -0.2010    -0.1930    -4.6170 ha         1 ICU       0.103000
     25 H8           1.7700    -0.7890    -1.6140 h1         1 ICU       0.140700
     26 H101         4.2570    -3.0640    -4.6740 hc         1 ICU       0.019367
     27 H102         3.7750    -1.6710    -5.6510 hc         1 ICU       0.019367
     28 H103         2.6130    -2.9630    -5.3180 hc         1 ICU       0.019367
     29 H121         1.9670     3.8710    -0.5950 h1         1 ICU      -0.010967
     30 H122         2.2270     3.7940    -2.3430 h1         1 ICU      -0.010967
     31 H123         3.4760     3.2070    -1.2370 h1         1 ICU      -0.010967
@<TRIPOS>BOND
     1     1     2 1   
     2     1     3 1   
     3     1     4 1   
     4     4     5 ar  
     5     4    10 ar  
     6     5     6 ar  
     7     5    20 1   
     8     6     7 1   
     9     6     8 ar  
    10     7    21 1   
    11     7    22 1   
    12     8     9 ar  
    13     8    23 1   
    14     9    10 ar  
    15     9    24 1   
    16    10    11 1   
    17    11    12 1   
    18    11    16 1   
    19    11    25 1   
    20    12    13 1   
    21    13    14 2   
    22    13    15 1   
    23    15    26 1   
    24    15    27 1   
    25    15    28 1   
    26    16    17 2   
    27    16    18 1   
    28    18    19 1   
    29    19    29 1   
    30    19    30 1   
    31    19    31 1   
@<TRIPOS>SUBSTRUCTURE
     1 ICU         1 TEMP              0 ****  ****    0 ROOT
