@<TRIPOS>MOLECULE
ICX
   55    56     1     0     0
SMALL
bcc


@<TRIPOS>ATOM
      1 C5           0.0000     0.0000     0.0000 ca         1 ICX      -0.081000
      2 C4           1.3820     0.0000     0.0000 ca         1 ICX      -0.090500
      3 C3           2.0730     0.0000     1.1970 ca         1 ICX      -0.086300
      4 C7           3.5800    -0.0010     1.1970 c3         1 ICX       0.084200
      5 C8           4.0830     1.4190     1.1960 ca         1 ICX      -0.061300
      6 C9           4.3080     2.0690    -0.0050 ca         1 ICX      -0.107000
      7 C10          4.7690     3.3700    -0.0130 ca         1 ICX      -0.053500
      8 C11          5.0090     4.0300     1.1940 ca         1 ICX      -0.164600
      9 C12          4.7800     3.3670     2.4010 ca         1 ICX      -0.053500
     10 C13          4.3130     2.0690     2.3950 ca         1 ICX      -0.107000
     11 C23          5.5020     5.4220     1.1920 c          1 ICX       0.588700
     12 O24          5.7000     5.9960     0.1400 o          1 ICX      -0.633100
     13 N25          5.7320     6.0570     2.3600 ns         1 ICX      -0.064100
     14 C26          6.1980     7.3680     2.3580 c2         1 ICX      -0.134400
     15 C27          6.3330     8.0210     3.4960 c2         1 ICX      -0.235200
     16 C28          6.1150     7.3070     4.8050 c3         1 ICX       0.019800
     17 C29          7.3430     7.4920     5.6980 c3         1 ICX      -0.011400
     18 C30          7.1220     6.7670     7.0280 c3         1 ICX      -0.094400
     19 C31          8.3320     6.9490     7.9070 c          1 ICX       0.574100
     20 O32          9.2780     7.5950     7.5100 o          1 ICX      -0.647100
     21 N33          8.3630     6.3940     9.1350 ns         1 ICX      -0.204900
     22 C34          9.5380     6.5710     9.9900 c3         1 ICX       0.008000
     23 C35          9.3200     5.8560    11.2990 c          1 ICX       0.690100
     24 O36          8.2880     5.2610    11.4970 o          1 ICX      -0.594000
     25 O37         10.2730     5.8830    12.2440 os         1 ICX      -0.407900
     26 C38          9.9950     5.1730    13.4800 c3         1 ICX       0.271700
     27 C2           1.3820     0.0020     2.3950 ca         1 ICX      -0.090500
     28 C1          -0.0000     0.0020     2.3950 ca         1 ICX      -0.081000
     29 C6          -0.6920     0.0010     1.1980 ca         1 ICX       0.199900
     30 I1          -2.7860     0.0110     1.1980 i          1 ICX      -0.292900
     31 H5          -0.5420    -0.0000    -0.9380 ha         1 ICX       0.118000
     32 H4           1.9240    -0.0010    -0.9380 ha         1 ICX       0.110000
     33 H7           3.9410    -0.5110     2.0820 hc         1 ICX       0.025700
     34 H7A          3.9410    -0.5130     0.3130 hc         1 ICX       0.025700
     35 H9           4.1220     1.5560    -0.9400 ha         1 ICX       0.109500
     36 H10          4.9440     3.8770    -0.9530 ha         1 ICX       0.113500
     37 H12          4.9610     3.8740     3.3410 ha         1 ICX       0.113500
     38 H13          4.1360     1.5550     3.3320 ha         1 ICX       0.109500
     39 HN25         5.5290     5.5990     3.2260 hn         1 ICX       0.184500
     40 H26          6.3550     7.8830     1.4180 h4         1 ICX       0.150000
     41 H27          6.6950     9.0420     3.4930 ha         1 ICX       0.122000
     42 H28          5.9590     6.2520     4.6190 hc         1 ICX       0.010200
     43 H28A         5.2440     7.7190     5.3000 hc         1 ICX       0.010200
     44 H29          7.4990     8.5480     5.8850 hc         1 ICX       0.033700
     45 H29A         8.2150     7.0810     5.2030 hc         1 ICX       0.033700
     46 H30          6.2510     7.1780     7.5230 hc         1 ICX       0.026700
     47 H30A         6.9660     5.7110     6.8410 hc         1 ICX       0.026700
     48 HN33         7.5820     5.8610     9.4620 hn         1 ICX       0.201500
     49 H34         10.4100     6.1610     9.4950 h1         1 ICX       0.048700
     50 H34A         9.6930     7.6270    10.1760 h1         1 ICX       0.048700
     51 H38          9.1110     5.5910    13.9460 h1         1 ICX       0.003033
     52 H38A        10.8390     5.2730    14.1510 h1         1 ICX       0.003033
     53 H38B         9.8270     4.1250    13.2640 h1         1 ICX       0.003033
     54 H2           1.9250     0.0020     3.3320 ha         1 ICX       0.110000
     55 H1          -0.5420     0.0030     3.3340 ha         1 ICX       0.118000
@<TRIPOS>BOND
     1     1     2 ar  
     2     1    29 ar  
     3     1    31 1   
     4     2     3 ar  
     5     2    32 1   
     6     3     4 1   
     7     3    27 ar  
     8     4     5 1   
     9     4    33 1   
    10     4    34 1   
    11     5     6 ar  
    12     5    10 ar  
    13     6     7 ar  
    14     6    35 1   
    15     7     8 ar  
    16     7    36 1   
    17     8     9 ar  
    18     8    11 1   
    19     9    10 ar  
    20     9    37 1   
    21    10    38 1   
    22    11    12 2   
    23    11    13 1   
    24    13    14 1   
    25    13    39 1   
    26    14    15 2   
    27    14    40 1   
    28    15    16 1   
    29    15    41 1   
    30    16    17 1   
    31    16    42 1   
    32    16    43 1   
    33    17    18 1   
    34    17    44 1   
    35    17    45 1   
    36    18    19 1   
    37    18    46 1   
    38    18    47 1   
    39    19    20 2   
    40    19    21 1   
    41    21    22 1   
    42    21    48 1   
    43    22    23 1   
    44    22    49 1   
    45    22    50 1   
    46    23    24 2   
    47    23    25 1   
    48    25    26 1   
    49    26    51 1   
    50    26    52 1   
    51    26    53 1   
    52    27    28 ar  
    53    27    54 1   
    54    28    29 ar  
    55    28    55 1   
    56    29    30 1   
@<TRIPOS>SUBSTRUCTURE
     1 ICX         1 TEMP              0 ****  ****    0 ROOT
