@<TRIPOS>MOLECULE
ID1
   39    39     1     0     0
SMALL
bcc


@<TRIPOS>ATOM
      1 C7           0.0000     0.0000     0.0000 c          1 ID1       0.677900
      2 C2           1.2460     2.7810    -2.3790 c3         1 ID1       0.019100
      3 C6           1.5080     0.0000     0.0000 c3         1 ID1      -0.176700
      4 C5           2.0170     1.2490    -0.7220 c3         1 ID1       0.121500
      5 C3           1.0360     3.2940    -0.9720 ce         1 ID1       0.373300
      6 O7          -0.6030    -0.9060    -0.5230 o          1 ID1      -0.596100
      7 C61          2.0180     0.0000     1.4420 c3         1 ID1       0.201100
      8 O62          3.4460    -0.0000     1.4430 oh         1 ID1      -0.595800
      9 C62          1.5070    -1.2490     2.1630 c3         1 ID1      -0.040100
     10 N4           1.4550     2.4570    -0.1080 n2         1 ID1      -0.499900
     11 C31          0.4220     4.6030    -0.6400 c          1 ID1       0.884300
     12 O31          0.2530     4.9610     0.6470 o          1 ID1      -0.840300
     13 O32          0.0720     5.3520    -1.5290 o          1 ID1      -0.840300
     14 S21         -0.2420     3.0420    -3.3840 ss         1 ID1      -0.311200
     15 C22          0.2590     2.4310    -5.0170 c3         1 ID1       0.031700
     16 C23         -0.8590     2.7020    -6.0280 c3         1 ID1       0.127800
     17 N24         -0.4550     2.2090    -7.3470 n2         1 ID1      -0.298900
     18 C25         -1.1270     1.2620    -7.9160 c2         1 ID1       0.131100
     19 N26         -2.2910     0.8140    -7.3520 nz         1 ID1       0.135400
     20 C1           1.5130     1.2690    -2.1840 c3         1 ID1      -0.090400
     21 H1          -0.5410     0.7810     0.5210 h4         1 ID1      -0.004800
     22 H2           2.1060     3.2600    -2.8310 h1         1 ID1       0.061700
     23 H3           1.8690    -0.8840    -0.5110 hc         1 ID1       0.047700
     24 H4           3.1000     1.2880    -0.6990 h1         1 ID1       0.056700
     25 H6           1.6570     0.8850     1.9530 h1         1 ID1       0.040700
     26 H7           3.7610     0.3320     2.2670 ho         1 ID1       0.397000
     27 H8           0.4570    -1.1270     2.3970 hc         1 ID1       0.009033
     28 H9           2.0670    -1.3910     3.0800 hc         1 ID1       0.009033
     29 H10          1.6370    -2.1140     1.5240 hc         1 ID1       0.009033
     30 H14          1.1650     2.9360    -5.3300 h1         1 ID1       0.043200
     31 H15          0.4400     1.3640    -4.9640 h1         1 ID1       0.043200
     32 H16         -1.0450     3.7680    -6.0820 h1         1 ID1       0.037700
     33 H17         -1.7620     2.1930    -5.7130 h1         1 ID1       0.037700
     34 H18         -0.8260     0.8980    -8.8910 hx         1 ID1       0.066800
     35 H19         -2.9110     1.5870    -7.2090 hn         1 ID1       0.224467
     36 H20         -2.7230     0.1480    -7.9620 hn         1 ID1       0.224467
     37 H21          2.2800     0.9200    -2.8640 hc         1 ID1       0.029200
     38 H22          0.5980     0.6980    -2.2870 hc         1 ID1       0.029200
     39 H263        -2.0900     0.3750    -6.4750 hn         1 ID1       0.224467
@<TRIPOS>BOND
     1     1     3 1   
     2     1     6 2   
     3     1    21 1   
     4     2     5 1   
     5     2    14 1   
     6     2    20 1   
     7     2    22 1   
     8     3     4 1   
     9     3     7 1   
    10     3    23 1   
    11     4    10 1   
    12     4    20 1   
    13     4    24 1   
    14     5    10 2   
    15     5    11 1   
    16     7     8 1   
    17     7     9 1   
    18     7    25 1   
    19     8    26 1   
    20     9    27 1   
    21     9    28 1   
    22     9    29 1   
    23    11    12 1   
    24    11    13 1   
    25    14    15 1   
    26    15    16 1   
    27    15    30 1   
    28    15    31 1   
    29    16    17 1   
    30    16    32 1   
    31    16    33 1   
    32    17    18 2   
    33    18    19 1   
    34    18    34 1   
    35    19    35 1   
    36    19    36 1   
    37    19    39 1   
    38    20    37 1   
    39    20    38 1   
@<TRIPOS>SUBSTRUCTURE
     1 ID1         1 TEMP              0 ****  ****    0 ROOT
