@<TRIPOS>MOLECULE
molecule
   39    39     1     0     0
SMALL
bcc


@<TRIPOS>ATOM
      1 C7           0.0000     0.0000     0.0000 c          1 ID1       0.589900
      2 C2           1.2460     2.7810    -2.3790 c3         1 ID1      -0.062900
      3 C6           1.5080     0.0000     0.0000 c3         1 ID1      -0.168700
      4 C5           2.0170     1.2490    -0.7220 c3         1 ID1       0.105500
      5 C3           1.0360     3.2940    -0.9720 ce         1 ID1       0.406300
      6 O7          -0.6030    -0.9060    -0.5230 o          1 ID1      -0.561100
      7 C61          2.0180     0.0000     1.4420 c3         1 ID1       0.158100
      8 O62          3.4460    -0.0000     1.4430 oh         1 ID1      -0.612800
      9 C62          1.5070    -1.2490     2.1630 c3         1 ID1      -0.129100
     10 N4           1.4550     2.4570    -0.1080 n2         1 ID1      -0.550900
     11 C31          0.4220     4.6030    -0.6400 c          1 ID1       0.798300
     12 O31          0.2530     4.9610     0.6470 o          1 ID1      -0.783300
     13 O32          0.0720     5.3520    -1.5290 o          1 ID1      -0.783300
     14 S21         -0.2420     3.0420    -3.3840 ss         1 ID1      -0.220200
     15 C22          0.2590     2.4310    -5.0170 c3         1 ID1      -0.030300
     16 C23         -0.8590     2.7020    -6.0280 c3         1 ID1       0.074800
     17 N24         -0.4550     2.2090    -7.3470 n2         1 ID1      -0.421900
     18 C25         -1.1270     1.2620    -7.9160 c2         1 ID1       0.418100
     19 N26         -2.2910     0.8140    -7.3520 nz         1 ID1      -0.890600
     20 C1           1.5130     1.2690    -2.1840 c3         1 ID1      -0.135400
     21 H1          -0.5410     0.7810     0.5200 h4         1 ID1       0.031200
     22 H2           2.1060     3.2600    -2.8310 h1         1 ID1       0.090700
     23 H3           1.8690    -0.8840    -0.5110 hc         1 ID1       0.072700
     24 H4           3.1000     1.2880    -0.6990 h1         1 ID1       0.092700
     25 H6           1.6570     0.8850     1.9530 h1         1 ID1       0.072700
     26 H7           3.7610     0.3290     2.2680 ho         1 ID1       0.409000
     27 H8           0.4420    -1.1570     2.3360 hc         1 ID1       0.041033
     28 H9           1.7000    -2.1230     1.5520 hc         1 ID1       0.041033
     29 H10          2.0190    -1.3520     3.1130 hc         1 ID1       0.041033
     30 H14          0.4510     1.3660    -4.9610 h1         1 ID1       0.070700
     31 H15          1.1590     2.9440    -5.3350 h1         1 ID1       0.070700
     32 H16         -1.7620     2.1930    -5.7130 h1         1 ID1       0.080700
     33 H17         -1.0450     3.7680    -6.0820 h1         1 ID1       0.080700
     34 H18         -1.1220     0.5230    -7.1230 hx         1 ID1       0.163800
     35 H19         -2.6480     0.0480    -7.8880 hn         1 ID1       0.447133
     36 H20         -2.9630     1.5550    -7.3410 hn         1 ID1       0.447133
     37 H21          2.2800     0.9200    -2.8640 hc         1 ID1       0.050200
     38 H22          0.5990     0.6970    -2.2870 hc         1 ID1       0.050200
     39 H263        -2.1120     0.5070    -6.4160 hn         1 ID1       0.447133
@<TRIPOS>BOND
     1    12    11 1
     2    11    13 1
     3    11     5 1
     4     1     3 1
     5     1     6 2
     6     5    10 2
     7     5     2 1
     8    10     4 1
     9    14     2 1
    10    14    15 1
    11     3     4 1
    12     3     7 1
    13     9     7 1
    14     2    20 1
    15     4    20 1
    16     7     8 1
    17    15    16 1
    18    17    16 1
    19    17    18 2
    20    18    19 1
    21     1    21 1
    22     2    22 1
    23     3    23 1
    24     4    24 1
    25     7    25 1
    26     8    26 1
    27     9    27 1
    28     9    28 1
    29     9    29 1
    30    15    30 1
    31    15    31 1
    32    16    32 1
    33    16    33 1
    34    18    34 1
    35    19    35 1
    36    19    36 1
    37    20    37 1
    38    20    38 1
    39    39    19 1
@<TRIPOS>SUBSTRUCTURE
     1 ID1         1 TEMP              0 ****  ****    0 ROOT
