@<TRIPOS>MOLECULE
ID2
   28    29     1     0     0
SMALL
bcc


@<TRIPOS>ATOM
      1 C2           0.0000     0.0000     0.0000 c          1 ID2       0.595500
      2 C4          -0.0420    -0.0110     2.3360 c          1 ID2       0.621700
      3 C5           1.3740    -0.0040     2.3500 cc         1 ID2      -0.045400
      4 C6           2.0420     0.0000     1.1760 cd         1 ID2      -0.071400
      5 O2          -0.6000    -0.0000    -1.0580 o          1 ID2      -0.700500
      6 O5'          1.4070     3.0230    -4.2310 oh         1 ID2      -0.584800
      7 C5'          0.8620     1.7030    -4.2790 c3         1 ID2       0.223400
      8 C4'          1.7260     0.7640    -3.4330 c3         1 ID2       0.172100
      9 O4'          1.6940     1.1570    -2.0450 os         1 ID2      -0.375600
     10 C1'          2.0690     0.0050    -1.2730 c3         1 ID2       0.238500
     11 N1           1.3450     0.0000     0.0000 n          1 ID2       0.043000
     12 N3          -0.6930    -0.0110     1.1540 ns         1 ID2      -0.128500
     13 O4          -0.6680    -0.0140     3.3810 o          1 ID2      -0.638500
     14 I            2.4160    -0.0040     4.1670 i          1 ID2      -0.161800
     15 C2'          1.6940    -1.2400    -2.0990 c3         1 ID2      -0.102400
     16 C3'          1.1290    -0.6650    -3.4220 c3         1 ID2       0.160100
     17 O3'          1.5830    -1.4240    -4.5440 oh         1 ID2      -0.579800
     18 H6           3.1250     0.0030     1.1670 h4         1 ID2       0.143000
     19 HO5'         0.9160     3.5860    -4.8070 ho         1 ID2       0.390000
     20 H5'1        -0.1480     1.7140    -3.8880 h1         1 ID2      -0.000300
     21 H5'2         0.8490     1.3550    -5.3050 h1         1 ID2      -0.000300
     22 H4'          2.7460     0.7450    -3.7970 h1         1 ID2       0.036700
     23 H1'          3.1380     0.0170    -1.0940 h2         1 ID2       0.034700
     24 HN3         -1.6930    -0.0160     1.1360 hn         1 ID2       0.208500
     25 H2'1         2.5730    -1.8430    -2.2940 hc         1 ID2       0.042200
     26 H2'2         0.9360    -1.8190    -1.5850 hc         1 ID2       0.042200
     27 H3'          0.0470    -0.6260    -3.3890 h1         1 ID2       0.043700
     28 HO3'         0.8990    -2.0090    -4.8250 ho         1 ID2       0.396000
@<TRIPOS>BOND
     1     1     5 2   
     2     1    11 1   
     3     1    12 1   
     4     2     3 1   
     5     2    12 1   
     6     2    13 2   
     7     3     4 2   
     8     3    14 1   
     9     4    11 1   
    10     4    18 1   
    11     6     7 1   
    12     6    19 1   
    13     7     8 1   
    14     7    20 1   
    15     7    21 1   
    16     8     9 1   
    17     8    16 1   
    18     8    22 1   
    19     9    10 1   
    20    10    11 1   
    21    10    15 1   
    22    10    23 1   
    23    12    24 1   
    24    15    16 1   
    25    15    25 1   
    26    15    26 1   
    27    16    17 1   
    28    16    27 1   
    29    17    28 1   
@<TRIPOS>SUBSTRUCTURE
     1 ID2         1 TEMP              0 ****  ****    0 ROOT
