@<TRIPOS>MOLECULE
molecule
   34    34     1     0     0
SMALL
bcc


@<TRIPOS>ATOM
      1 C1           0.0000     0.0000     0.0000 c3         1 ID3      -0.013800
      2 O1          -4.4440     2.3990     0.6050 o          1 ID3      -0.549100
      3 C2           1.5310     0.0000     0.0000 c3         1 ID3      -0.069400
      4 C3           2.0180     0.0000     1.4530 c3         1 ID3      -0.082400
      5 C4           1.6620     1.3470     2.0860 c3         1 ID3      -0.036200
      6 C5           0.2180     1.6710     1.8340 c2         1 ID3      -0.096400
      7 C6          -0.5170     1.0770     0.9090 ce         1 ID3      -0.115200
      8 C7          -1.9090     1.4930     0.7620 ce         1 ID3      -0.011000
      9 C8          -2.2080     2.7970     0.5330 cf         1 ID3      -0.294200
     10 C9          -3.5520     3.2100     0.4610 c          1 ID3       0.566300
     11 C16         -0.5040    -1.3610     0.4870 c3         1 ID3      -0.081600
     12 C17         -0.5070     0.2490    -1.4220 c3         1 ID3      -0.081600
     13 C18         -0.4320     2.7310     2.6860 c3         1 ID3      -0.062900
     14 C19         -3.8830     4.6580     0.2060 c3         1 ID3      -0.191100
     15 H2           1.8940    -0.8870    -0.5050 hc         1 ID3       0.046200
     16 H2A          1.8940     0.8870    -0.5050 hc         1 ID3       0.046200
     17 H3           1.5300    -0.7980     2.0000 hc         1 ID3       0.046200
     18 H4           2.2830     2.1210     1.6510 hc         1 ID3       0.052200
     19 H7          -2.7050     0.7700     0.8900 ha         1 ID3       0.155000
     20 H8          -1.4130     3.5290     0.4580 ha         1 ID3       0.137000
     21 H16          0.1600    -2.1400     0.1320 hc         1 ID3       0.038033
     22 H16A        -1.5020    -1.5340     0.1040 hc         1 ID3       0.038033
     23 H16B        -0.5260    -1.3710     1.5700 hc         1 ID3       0.038033
     24 H17         -0.0570    -0.4690    -2.0970 hc         1 ID3       0.038033
     25 H17A        -0.2390     1.2520    -1.7300 hc         1 ID3       0.038033
     26 H17B        -1.5850     0.1400    -1.4450 hc         1 ID3       0.038033
     27 H18          0.1000     2.8160     3.6250 hc         1 ID3       0.045033
     28 H18A        -0.4020     3.6810     2.1660 hc         1 ID3       0.045033
     29 H18B        -1.4630     2.4570     2.8790 hc         1 ID3       0.045033
     30 H19         -4.9530     4.7660     0.0750 hc         1 ID3       0.058367
     31 H19A        -3.5600     5.2570     1.0500 hc         1 ID3       0.058367
     32 H19B        -3.3740     4.9930    -0.6900 hc         1 ID3       0.058367
     33 H3A          3.0920    -0.1390     1.4760 hc         1 ID3       0.046200
     34 H4A          1.8370     1.2980     3.1540 hc         1 ID3       0.052200
@<TRIPOS>BOND
     1     3     1 1
     2    11     1 1
     3     1     7 1
     4     1    12 1
     5    10     2 2
     6     4     3 1
     7     3    15 1
     8     3    16 1
     9     4     5 1
    10     4    17 1
    11     5     6 1
    12     5    18 1
    13     6     7 2
    14     6    13 1
    15     7     8 1
    16     8     9 2
    17     8    19 1
    18     9    10 1
    19     9    20 1
    20    10    14 1
    21    11    21 1
    22    11    22 1
    23    11    23 1
    24    12    24 1
    25    12    25 1
    26    12    26 1
    27    13    27 1
    28    13    28 1
    29    13    29 1
    30    14    30 1
    31    14    31 1
    32    14    32 1
    33     4    33 1
    34     5    34 1
@<TRIPOS>SUBSTRUCTURE
     1 ID3         1 TEMP              0 ****  ****    0 ROOT
