@<TRIPOS>MOLECULE
ID3
   34    34     1     0     0
SMALL
bcc


@<TRIPOS>ATOM
      1 C1          0.0020    0.1610   -0.0830 c3        1 ID3     -0.003800
      2 O1         -3.8090    0.8740    0.9560 o         1 ID3     -0.525100
      3 C2          1.3060   -0.2690    0.5960 c3        1 ID3     -0.069400
      4 C3          1.3750    0.1770    2.0380 c3        1 ID3     -0.076400
      5 C4          1.2960    1.6840    2.1380 c3        1 ID3     -0.040200
      6 C5          0.2490    2.2740    1.2570 c2        1 ID3     -0.102400
      7 C6         -0.3380    1.5930    0.2530 ce        1 ID3     -0.090200
      8 C7         -1.3110    2.2200   -0.6440 ce        1 ID3     -0.067000
      9 C8         -2.6170    2.4000   -0.4380 cf        1 ID3     -0.254200
     10 C9         -3.3910    2.0190    0.7600 c         1 ID3      0.574300
     11 C16        -1.1350   -0.7520    0.3630 c3        1 ID3     -0.088600
     12 C17         0.1850    0.0140   -1.5920 c3        1 ID3     -0.088600
     13 C18        -0.0570    3.6940    1.5630 c3        1 ID3     -0.063900
     14 C19        -3.6880    3.1460    1.6990 c3        1 ID3     -0.202100
     15 H2          2.1740    0.1670    0.0330 hc        1 ID3      0.042200
     16 H2A         1.3930   -1.3850    0.5390 hc        1 ID3      0.042200
     17 H3          2.3330   -0.1790    2.4970 hc        1 ID3      0.043700
     18 H4          1.0950    1.9780    3.2030 hc        1 ID3      0.047700
     19 H7         -0.8640    2.5620   -1.5980 ha        1 ID3      0.130000
     20 H8         -3.2400    2.8830   -1.2120 ha        1 ID3      0.142000
     21 H16        -2.1040   -0.4080   -0.0750 hc        1 ID3      0.039867
     22 H16A       -1.2340   -0.7450    1.4740 hc        1 ID3      0.039867
     23 H16B       -0.9370   -1.7980    0.0260 hc        1 ID3      0.039867
     24 H17         0.5530   -1.0140   -1.8280 hc        1 ID3      0.039867
     25 H17A       -0.7860    0.1720   -2.1200 hc        1 ID3      0.039867
     26 H17B        0.9260    0.7560   -1.9710 hc        1 ID3      0.039867
     27 H18         0.8840    4.3000    1.5360 hc        1 ID3      0.042367
     28 H18A       -0.4940    3.7790    2.5900 hc        1 ID3      0.042367
     29 H18B       -0.7800    4.1330    0.8330 hc        1 ID3      0.042367
     30 H19        -4.3030    2.7920    2.5610 hc        1 ID3      0.064033
     31 H19A       -2.7280    3.5720    2.0840 hc        1 ID3      0.064033
     32 H19B       -4.2440    3.9500    1.1590 hc        1 ID3      0.064033
     33 H3A         0.5340   -0.2860    2.6190 hc        1 ID3      0.043700
     34 H4A         2.2870    2.1330    1.8520 hc        1 ID3      0.047700
@<TRIPOS>BOND
     1    1    3 1   
     2    1    7 1   
     3    1   11 1   
     4    1   12 1   
     5    2   10 2   
     6    3    4 1   
     7    3   15 1   
     8    3   16 1   
     9    4    5 1   
    10    4   17 1   
    11    4   33 1   
    12    5    6 1   
    13    5   18 1   
    14    5   34 1   
    15    6    7 2   
    16    6   13 1   
    17    7    8 1   
    18    8    9 2   
    19    8   19 1   
    20    9   10 1   
    21    9   20 1   
    22   10   14 1   
    23   11   21 1   
    24   11   22 1   
    25   11   23 1   
    26   12   24 1   
    27   12   25 1   
    28   12   26 1   
    29   13   27 1   
    30   13   28 1   
    31   13   29 1   
    32   14   30 1   
    33   14   31 1   
    34   14   32 1   
@<TRIPOS>SUBSTRUCTURE
     1 ID3         1 TEMP              0 ****  ****    0 ROOT
