@<TRIPOS>MOLECULE
ID4
   43    43     1     0     0
SMALL
bcc


@<TRIPOS>ATOM
      1 CAL         0.3580   -0.3230    0.0300 c3        1 ID4     -0.186000
      2 CAJ         1.7490    0.1290   -0.3690 c3        1 ID4     -0.162000
      3 CAI         2.6920    0.2040    0.8050 c3        1 ID4     -0.215000
      4 CAK        -1.5700    0.8250    2.9090 c2        1 ID4     -0.181000
      5 CAM        -1.3590    0.2270    1.7390 c2        1 ID4     -0.155000
      6 CAW        -6.0790   -0.2830   -5.4720 ca        1 ID4     -1.008000
      7 CAT        -5.2130    0.7250   -5.9730 ca        1 ID4      0.195000
      8 CAH        -2.0080    0.5420   -2.3030 c1        1 ID4      0.092000
      9 NAO        -1.5980    2.9090   -2.3280 n2        1 ID4     -0.004000
     10 CAU        -5.7550   -0.7930   -4.1810 ca        1 ID4      0.195000
     11 CAR        -4.1260    1.2400   -5.2180 ca        1 ID4      0.061500
     12 FAF        -5.4120    1.2240   -7.2060 f         1 ID4     -0.048000
     13 CAV        -3.8630    0.7620   -3.9040 ca        1 ID4      0.192000
     14 OAB        -8.5410   -0.8920   -5.4810 o         1 ID4     -0.820000
     15 OAC        -7.4920   -0.3330   -7.5720 o         1 ID4     -0.820000
     16 NAA        -6.9540   -2.5810   -6.5030 n4        1 ID4     -0.513000
     17 CAS        -4.7010   -0.2850   -3.3980 ca        1 ID4      0.061500
     18 CAQ        -1.0990    1.6160   -1.6710 c3        1 ID4     -0.252000
     19 FAE        -4.5040   -0.8040   -2.1700 f         1 ID4     -0.029000
     20 NAY        -2.8240    1.2820   -3.1240 nh        1 ID4     -0.248000
     21 NAP        -2.5060    2.7010   -3.1020 n2        1 ID4      0.068000
     22 CAN        -1.2490    1.6590   -0.2020 c1        1 ID4      0.041000
     23 CAX        -0.4710    0.7870    0.6680 c3        1 ID4     -0.146000
     24 H1          0.4530   -1.1780    0.7520 hc        1 ID4      0.096500
     25 H2         -0.1860   -0.7160   -0.8710 hc        1 ID4      0.096500
     26 H3          2.1590   -0.5970   -1.1220 hc        1 ID4      0.076000
     27 H4          1.7020    1.1320   -0.8710 hc        1 ID4      0.076000
     28 H5          2.7980   -0.7970    1.2890 hc        1 ID4      0.081000
     29 H6          3.7020    0.5410    0.4660 hc        1 ID4      0.081000
     30 H7         -1.1240    1.7920    3.1780 ha        1 ID4      0.125000
     31 H8          2.3200    0.9260    1.5720 hc        1 ID4      0.081000
     32 H9         -1.8190   -0.7410    1.4860 ha        1 ID4      0.129000
     33 H10        -2.2160    0.3810    3.6790 ha        1 ID4      0.125000
     34 H11        -0.0250    1.4820   -2.0050 h1        1 ID4      0.197000
     35 H12        -6.0640   -2.8180   -6.0720 hn        1 ID4      0.258667
     36 H13        -6.8930   -2.8130   -7.4950 hn        1 ID4      0.258667
     37 H14        -3.3890    0.6920   -0.2030 ha        1 ID4      0.011500
     38 H15        -3.1270    0.0660   -0.2630 ha        1 ID4      0.011500
     39 H16         0.2420    1.5400    1.1550 hc        1 ID4      0.173000
     40 FAG        -6.4920   -1.8120   -3.6850 f         1 ID4     -0.048000
     41 FAD        -3.3560    2.1840   -5.7930 f         1 ID4     -0.029000
     42 HAA3       -7.6650   -3.1830   -6.0850 hn        1 ID4      0.258667
     43 SAZ        -7.4240   -0.7530   -6.2660 s6        1 ID4      2.823000
@<TRIPOS>BOND
     1    1    2 1   
     2    1   23 1   
     3    1   24 1   
     4    1   25 1   
     5    2    3 1   
     6    2   26 1   
     7    2   27 1   
     8    3   28 1   
     9    3   29 1   
    10    3   31 1   
    11    4    5 1   
    12    4   30 1   
    13    4   33 1   
    14    5   23 1   
    15    5   32 1   
    16    6    7 1   
    17    6   10 1   
    18    6   43 1   
    19    7   11 1   
    20    7   12 1   
    21    8   18 1   
    22    8   20 1   
    23    9   18 1   
    24    9   21 1   
    25   10   17 1   
    26   10   40 1   
    27   11   13 1   
    28   11   41 1   
    29   13   17 1   
    30   13   20 1   
    31   14   43 1   
    32   15   43 1   
    33   16   35 1   
    34   16   36 1   
    35   16   42 1   
    36   16   43 1   
    37   17   19 1   
    38   18   22 1   
    39   18   34 1   
    40   20   21 1   
    41   22   23 1   
    42   23   39 1   
    43   37   38 1   
@<TRIPOS>SUBSTRUCTURE
     1 ID4         1 TEMP              0 ****  ****    0 ROOT
