@<TRIPOS>MOLECULE
ID5
   37    39     1     0     0
SMALL
bcc


@<TRIPOS>ATOM
      1 C2           0.0000     0.0000     0.0000 ca         1 ID5      -0.279000
      2 C3           1.3700     0.0120     2.4210 ca         1 ID5      -0.027000
      3 C4           1.3860     0.0000     0.0000 ca         1 ID5       0.243100
      4 C5          -0.6930     0.0070     1.1980 ca         1 ID5       0.163900
      5 C6          -0.0070     0.0130     2.4050 ca         1 ID5      -0.221000
      6 C7           2.0820     0.0000     1.2180 ca         1 ID5      -0.237600
      7 F9          -2.0440     0.0090     1.1930 f          1 ID5      -0.136900
      8 C11          3.5550    -0.0020     1.2300 c          1 ID5       0.600700
      9 C13          6.1750     0.0180     3.8370 cc         1 ID5       0.422200
     10 O15          2.0660    -0.0070    -1.1720 os         1 ID5      -0.175900
     11 O16          4.1710    -0.0130     0.1820 o          1 ID5      -0.583100
     12 C18          5.6840     0.0060     2.4120 c3         1 ID5       0.080700
     13 C20          1.0900    -0.0120    -2.2160 c3         1 ID5       0.036400
     14 N21          6.4330    -0.9960     4.6120 nd         1 ID5      -0.458100
     15 S22          6.5290     1.3880     4.8420 ss         1 ID5      -0.195100
     16 C24          7.0240     0.4930     6.2930 ca         1 ID5      -0.040100
     17 C25          7.6320    -1.4920     8.0870 ca         1 ID5       0.095900
     18 C26          6.8750    -0.8470     5.8790 ca         1 ID5       0.081400
     19 C27          7.4600     0.8350     7.5520 ca         1 ID5       0.186900
     20 C28          7.7680    -0.1620     8.4610 ca         1 ID5      -0.144000
     21 C29          7.1970    -1.8420     6.8320 ca         1 ID5       0.127900
     22 C32          1.7860    -0.0200    -3.5530 c          1 ID5       0.970600
     23 O33          1.0630    -0.0260    -4.6840 o          1 ID5      -0.875300
     24 O34          2.9920    -0.0210    -3.6060 o          1 ID5      -0.875300
     25 N36          4.2200     0.0070     2.4020 ns         1 ID5      -0.238900
     26 H2          -0.5410    -0.0020    -0.9380 ha         1 ID5       0.173000
     27 H3           1.9010     0.0140     3.3650 ha         1 ID5       0.091000
     28 H6          -0.5570     0.0210     3.3390 ha         1 ID5       0.111000
     29 H181         6.0490    -0.8830     1.9120 h1         1 ID5       0.046700
     30 H182         6.0500     0.8860     1.8970 h1         1 ID5       0.046700
     31 H201         0.4690    -0.8950    -2.1270 h1         1 ID5       0.007200
     32 H202         0.4710     0.8740    -2.1370 h1         1 ID5       0.007200
     33 H28          8.2460     0.0900     9.4000 ha         1 ID5       0.141000
     34 H36          3.7130     0.0420     3.2640 hn         1 ID5       0.180500
     35 F14          7.5860     2.1350     7.8990 f          1 ID5      -0.114900
     36 F8           7.9330    -2.4630     8.9760 f          1 ID5      -0.112900
     37 F23          7.0760    -3.1470     6.5050 f          1 ID5      -0.101900
@<TRIPOS>BOND
     1     1     3 ar  
     2     1     4 ar  
     3     1    26 1   
     4     2     5 ar  
     5     2     6 ar  
     6     2    27 1   
     7     3     6 ar  
     8     3    10 1   
     9     4     5 ar  
    10     4     7 1   
    11     5    28 1   
    12     6     8 1   
    13     8    11 2   
    14     8    25 1   
    15     9    12 1   
    16     9    14 2   
    17     9    15 1   
    18    10    13 1   
    19    12    25 1   
    20    12    29 1   
    21    12    30 1   
    22    13    22 1   
    23    13    31 1   
    24    13    32 1   
    25    14    18 1   
    26    15    16 1   
    27    16    18 ar  
    28    16    19 ar  
    29    17    20 ar  
    30    17    21 ar  
    31    17    36 1   
    32    18    21 ar  
    33    19    20 ar  
    34    19    35 1   
    35    20    33 1   
    36    21    37 1   
    37    22    23 1   
    38    22    24 1   
    39    25    34 1   
@<TRIPOS>SUBSTRUCTURE
     1 ID5         1 TEMP              0 ****  ****    0 ROOT
