@<TRIPOS>MOLECULE
ID6
   44    46     1     0     0
SMALL
bcc


@<TRIPOS>ATOM
      1 CL          0.1940    0.5410   -1.1280 cl        1 ID6     -0.088400
      2 C14         1.8380    0.3330   -0.7530 ca        1 ID6      0.024400
      3 C13         2.2150   -0.5830    0.2340 ca        1 ID6     -0.124000
      4 C12         3.5640   -0.7470    0.5400 ca        1 ID6     -0.105000
      5 C15         2.8040    1.0800   -1.4350 ca        1 ID6     -0.124000
      6 C16         4.1510    0.9050   -1.1260 ca        1 ID6     -0.105000
      7 C11         4.5370   -0.0040   -0.1350 ca        1 ID6     -0.115300
      8 C10         5.9910   -0.1370    0.2210 c3        1 ID6      0.078600
      9 N           6.5150   -1.4760    0.1780 na        1 ID6     -0.051100
     10 C8          6.8070   -2.2000   -0.9820 cc        1 ID6     -0.050600
     11 C9          6.6030   -1.7010   -2.3540 c3        1 ID6     -0.031800
     12 C17         6.8020   -2.2670    1.2970 cc        1 ID6     -0.056600
     13 C18         6.6120   -1.8140    2.6880 c3        1 ID6     -0.049800
     14 C19         7.3180   -3.5020    0.8450 cd        1 ID6     -0.186600
     15 C           7.7470   -4.5890    1.7140 c         1 ID6      0.610900
     16 O           7.2250   -4.7810    2.8280 o         1 ID6     -0.570100
     17 C7          7.3200   -3.4610   -0.5970 cd        1 ID6     -0.113800
     18 C4          7.7330   -4.5120   -1.4940 cd        1 ID6      0.228900
     19 O1          7.1990   -4.3220   -2.7590 os        1 ID6     -0.343900
     20 C5          7.3390   -5.4020   -3.6910 c3        1 ID6      0.126400
     21 C6          6.4880   -5.0320   -4.8860 c3        1 ID6     -0.101100
     22 C3          8.5750   -5.5380   -1.2040 cc        1 ID6     -0.273000
     23 C2          9.2110   -5.8100    0.0480 cc        1 ID6     -0.030000
     24 C1          8.8760   -5.4210    1.2870 cd        1 ID6     -0.261200
     25 H13         1.4530   -1.1740    0.7660 ha        1 ID6      0.151500
     26 H15         2.5050    1.7990   -2.2130 ha        1 ID6      0.151500
     27 H12         3.8630   -1.4710    1.3140 ha        1 ID6      0.143500
     28 H16         4.9110    1.4870   -1.6690 ha        1 ID6      0.143500
     29 H101        6.1340    0.2600    1.2700 h1        1 ID6      0.072200
     30 H102        6.6080    0.5010   -0.4780 h1        1 ID6      0.072200
     31 H91C        7.5500   -1.8300   -2.9380 hc        1 ID6      0.056700
     32 H92C        5.8070   -2.3120   -2.8530 hc        1 ID6      0.056700
     33 H93C        6.2980   -0.6260   -2.3820 hc        1 ID6      0.056700
     34 H181        5.5510   -1.5060    2.8670 hc        1 ID6      0.061700
     35 H182        6.8570   -2.6520    3.3890 hc        1 ID6      0.061700
     36 H183        7.2780   -0.9440    2.9180 hc        1 ID6      0.061700
     37 H1          9.4820   -5.7810    2.1410 ha        1 ID6      0.142000
     38 H3          8.8440   -6.2560   -1.9990 ha        1 ID6      0.131000
     39 H51C        8.4190   -5.5000   -3.9800 h1        1 ID6      0.041700
     40 H52C        6.9850   -6.3580   -3.2230 h1        1 ID6      0.041700
     41 H61C        6.8360   -4.0690   -5.3300 hc        1 ID6      0.048700
     42 H62C        6.5660   -5.8390   -5.6520 hc        1 ID6      0.048700
     43 H63C        5.4200   -4.9150   -4.5830 hc        1 ID6      0.048700
     44 H2         10.0930   -6.4770   -0.0490 ha        1 ID6      0.120000
@<TRIPOS>BOND
     1    1    2 1   
     2    2    3 ar  
     3    2    5 ar  
     4    3    4 ar  
     5    3   25 1   
     6    4    7 ar  
     7    4   27 1   
     8    5    6 ar  
     9    5   26 1   
    10    6    7 ar  
    11    6   28 1   
    12    7    8 1   
    13    8    9 1   
    14    8   29 1   
    15    8   30 1   
    16    9   10 1   
    17    9   12 1   
    18   10   11 1   
    19   10   17 2   
    20   11   31 1   
    21   11   32 1   
    22   11   33 1   
    23   12   13 1   
    24   12   14 2   
    25   13   34 1   
    26   13   35 1   
    27   13   36 1   
    28   14   15 1   
    29   14   17 1   
    30   15   16 2   
    31   15   24 1   
    32   17   18 1   
    33   18   19 1   
    34   18   22 2   
    35   19   20 1   
    36   20   21 1   
    37   20   39 1   
    38   20   40 1   
    39   21   41 1   
    40   21   42 1   
    41   21   43 1   
    42   22   23 1   
    43   22   38 1   
    44   23   24 2   
    45   23   44 1   
    46   24   37 1   
@<TRIPOS>SUBSTRUCTURE
     1 ID6         1 TEMP              0 ****  ****    0 ROOT
