@<TRIPOS>MOLECULE
molecule
   44    46     1     0     0
SMALL
bcc


@<TRIPOS>ATOM
      1 Cl           0.0000     0.0000     0.0000 cl         1 ID6      -0.102400
      2 C14          1.7360     0.0000     0.0000 ca         1 ID6       0.039400
      3 C13          2.4280     0.0000     1.1980 ca         1 ID6      -0.121000
      4 C12          3.8100     0.0000     1.1970 ca         1 ID6      -0.100000
      5 C15          2.4280    -0.0030    -1.1980 ca         1 ID6      -0.121000
      6 C16          3.8100    -0.0020    -1.1970 ca         1 ID6      -0.100000
      7 C11          4.5010     0.0020    -0.0000 ca         1 ID6      -0.120300
      8 C10          6.0080     0.0030    -0.0000 c3         1 ID6       0.082600
      9 N            6.4970    -1.3780    -0.0020 na         1 ID6      -0.030100
     10 C8           6.7530    -2.0980    -1.1160 cc         1 ID6      -0.064600
     11 C9           6.5830    -1.6200    -2.5350 c3         1 ID6      -0.020800
     12 C17          6.7590    -2.1020     1.1160 cc         1 ID6      -0.047600
     13 C18          6.5950    -1.6190     2.5340 c3         1 ID6      -0.019800
     14 C19          7.1940    -3.3320     0.7440 cd         1 ID6      -0.188600
     15 C            7.5870    -4.4280     1.6400 c          1 ID6       0.613900
     16 O            7.5140    -4.2060     2.8390 o          1 ID6      -0.592100
     17 C7           7.1930    -3.3400    -0.7340 cd         1 ID6      -0.130800
     18 C4           7.5820    -4.4340    -1.6220 cd         1 ID6       0.259900
     19 O1           7.4950    -4.1910    -2.9500 os         1 ID6      -0.334900
     20 C5           7.8720    -5.2520    -3.8310 c3         1 ID6       0.131400
     21 C6           7.7090    -4.7930    -5.2810 c3         1 ID6      -0.094100
     22 C3           8.0270    -5.6900    -1.2560 cc         1 ID6      -0.312000
     23 C2           8.2200    -6.2330     0.0090 cc         1 ID6      -0.003000
     24 C1           8.0390    -5.7090     1.2630 cd         1 ID6      -0.284200
     25 H13          1.8870    -0.0010     2.1360 ha         1 ID6       0.148000
     26 H15          1.8870    -0.0070    -2.1360 ha         1 ID6       0.148000
     27 H12          4.3520     0.0020     2.1350 ha         1 ID6       0.140000
     28 H16          4.3520    -0.0030    -2.1350 ha         1 ID6       0.140000
     29 H101         6.3690     0.5150    -0.8840 h1         1 ID6       0.073200
     30 H102         6.3680     0.5130     0.8850 h1         1 ID6       0.073200
     31 H91C         5.7260    -2.1100    -2.9810 hc         1 ID6       0.053033
     32 H92C         6.4290    -0.5480    -2.5380 hc         1 ID6       0.053033
     33 H93C         7.4720    -1.8590    -3.1050 hc         1 ID6       0.053033
     34 H181         6.4960    -0.5410     2.5390 hc         1 ID6       0.056367
     35 H182         5.7070    -2.0650     2.9670 hc         1 ID6       0.056367
     36 H183         7.4630    -1.9050     3.1150 hc         1 ID6       0.056367
     37 H1           8.2780    -6.3760     2.0820 ha         1 ID6       0.141000
     38 H3           8.2610    -6.3530    -2.0810 ha         1 ID6       0.127000
     39 H51C         7.2380    -6.1120    -3.6510 h1         1 ID6       0.043200
     40 H52C         8.9050    -5.5210    -3.6510 h1         1 ID6       0.043200
     41 H61C         8.0150    -5.5890    -5.9480 hc         1 ID6       0.047700
     42 H62C         6.6710    -4.5450    -5.4670 hc         1 ID6       0.047700
     43 H63C         8.3260    -3.9190    -5.4540 hc         1 ID6       0.047700
     44 H2           8.5790    -7.2560     0.0040 ha         1 ID6       0.111000
@<TRIPOS>BOND
     1     1     2 1
     2     2     3 ar
     3     2     5 ar
     4     3     4 ar
     5     4     7 ar
     6     5     6 ar
     7     6     7 ar
     8     7     8 1
     9     8     9 1
    10     9    10 1
    11     9    12 1
    12    10    11 1
    13    10    17 2
    14    12    13 1
    15    12    14 2
    16    14    15 1
    17    14    17 1
    18    15    16 2
    19    15    24 1
    20    17    18 1
    21    18    19 1
    22    18    22 2
    23    19    20 1
    24    20    21 1
    25    22    23 1
    26    23    24 2
    27     3    25 1
    28     5    26 1
    29     4    27 1
    30     6    28 1
    31     8    29 1
    32     8    30 1
    33    11    31 1
    34    11    32 1
    35    11    33 1
    36    13    34 1
    37    13    35 1
    38    13    36 1
    39    24    37 1
    40    22    38 1
    41    20    39 1
    42    20    40 1
    43    21    41 1
    44    21    42 1
    45    21    43 1
    46    23    44 1
@<TRIPOS>SUBSTRUCTURE
     1 ID6         1 TEMP              0 ****  ****    0 ROOT
