@<TRIPOS>MOLECULE
ID8
   32    33     1     0     0
SMALL
bcc


@<TRIPOS>ATOM
      1 O16          0.0000     0.0000     0.0000 o          1 ID8      -0.878800
      2 C14          1.2160     0.0000     0.0000 c          1 ID8       0.968200
      3 O15          1.8890     0.0000     1.1670 o          1 ID8      -0.878800
      4 C13          1.9520    -0.0060    -1.2760 ca         1 ID8      -0.094600
      5 C12          3.3490     0.0460    -1.2820 ca         1 ID8      -0.062000
      6 C11          4.0310     0.0390    -2.4780 ca         1 ID8      -0.138000
      7 C10          3.3410    -0.0180    -3.6780 ca         1 ID8      -0.132000
      8 C9           1.9620    -0.0690    -3.6900 ca         1 ID8      -0.139000
      9 C8           1.2560    -0.0710    -2.4930 ca         1 ID8       0.003600
     10 N7          -0.1320    -0.1280    -2.5020 nu         1 ID8      -0.212000
     11 C6          -0.8810     1.0420    -2.3530 ca         1 ID8       0.125600
     12 C1          -2.2650     0.9740    -2.2490 ca         1 ID8      -0.165300
     13 C17         -2.9610    -0.3620    -2.2960 c3         1 ID8       0.060200
     14 C5          -0.2440     2.2750    -2.3040 ca         1 ID8      -0.178000
     15 C4          -0.9870     3.4290    -2.1570 ca         1 ID8      -0.062000
     16 C3          -2.3650     3.3580    -2.0580 ca         1 ID8      -0.191000
     17 C2          -3.0030     2.1320    -2.1010 ca         1 ID8      -0.052300
     18 C18         -4.5030     2.0600    -1.9890 c3         1 ID8       0.064200
     19 H12          3.8940     0.0910    -0.3470 ha         1 ID8       0.131000
     20 H11          5.1130     0.0800    -2.4810 ha         1 ID8       0.084000
     21 H10          3.8870    -0.0200    -4.6140 ha         1 ID8       0.082000
     22 H9           1.4310    -0.1170    -4.6330 ha         1 ID8       0.091000
     23 H7          -0.5960    -1.0040    -2.6460 hn         1 ID8       0.279800
     24 H5           0.8350     2.3310    -2.3810 ha         1 ID8       0.119000
     25 H171        -4.0300    -0.2090    -2.3880 hc         1 ID8       0.003033
     26 H172        -2.6020    -0.9260    -3.1490 hc         1 ID8       0.003033
     27 H173        -2.7520    -0.9110    -1.3860 hc         1 ID8       0.003033
     28 H4          -0.4910     4.3920    -2.1200 ha         1 ID8       0.082000
     29 H3          -2.9460     4.2660    -1.9430 ha         1 ID8       0.089000
     30 H181        -4.9150     1.6500    -2.9030 hc         1 ID8      -0.001967
     31 H182        -4.9010     3.0550    -1.8280 hc         1 ID8      -0.001967
     32 H183        -4.7730     1.4240    -1.1540 hc         1 ID8      -0.001967
@<TRIPOS>BOND
     1     1     2 1   
     2     2     3 1   
     3     2     4 1   
     4     4     5 ar  
     5     4     9 ar  
     6     5     6 ar  
     7     5    19 1   
     8     6     7 ar  
     9     6    20 1   
    10     7     8 ar  
    11     7    21 1   
    12     8     9 ar  
    13     8    22 1   
    14     9    10 1   
    15    10    11 1   
    16    10    23 1   
    17    11    12 ar  
    18    11    14 ar  
    19    12    13 1   
    20    12    17 ar  
    21    13    25 1   
    22    13    26 1   
    23    13    27 1   
    24    14    15 ar  
    25    14    24 1   
    26    15    16 ar  
    27    15    28 1   
    28    16    17 ar  
    29    16    29 1   
    30    17    18 1   
    31    18    30 1   
    32    18    31 1   
    33    18    32 1   
@<TRIPOS>SUBSTRUCTURE
     1 ID8         1 TEMP              0 ****  ****    0 ROOT
