@<TRIPOS>MOLECULE
IDA
   38    39     1     0     0
SMALL
bcc


@<TRIPOS>ATOM
      1 N2           0.0000     0.0000     0.0000 nz         1 IDA       0.192600
      2 C10          1.3470     0.0000     0.0000 c          1 IDA       0.265100
      3 O1           1.9540     0.0000     1.0510 o          1 IDA      -0.341100
      4 C9           2.1010    -0.0010    -1.3040 c3         1 IDA       0.037800
      5 C1           3.5830    -0.0020    -1.0290 cc         1 IDA      -0.352300
      6 N1           4.3540    -1.1210    -0.8850 na         1 IDA       0.399600
      7 C4           5.6610    -0.7620    -0.6420 ca         1 IDA      -0.191200
      8 C3           5.7100     0.6440    -0.6340 ca         1 IDA      -0.101800
      9 C2           4.3410     1.0970    -0.8880 cd         1 IDA      -0.128200
     10 C5           6.9210     1.2980    -0.4050 ca         1 IDA      -0.088000
     11 C6           8.0570     0.5660    -0.1990 ca         1 IDA      -0.086300
     12 C12          9.3670     1.2730     0.0420 c3         1 IDA       0.030900
     13 C13         10.0730     1.5100    -1.2930 c3         1 IDA      -0.027400
     14 C14         11.4010     2.2270    -1.0480 c3         1 IDA       0.004900
     15 C7           8.0140    -0.8190    -0.2050 ca         1 IDA      -0.070000
     16 C8           6.8290    -1.4850    -0.4250 ca         1 IDA       0.010700
     17 C11          6.7960    -2.9920    -0.4300 c3         1 IDA      -0.098100
     18 C15          6.5260    -3.4930     0.9650 c          1 IDA       0.970600
     19 O3           6.4530    -4.8110     1.2030 o          1 IDA      -0.884300
     20 O2           6.3750    -2.7070     1.8700 o          1 IDA      -0.884300
     21 HN21        -0.3340    -0.8320    -0.4450 hn         1 IDA       0.239467
     22 HN22        -0.3340     0.8010    -0.4980 hn         1 IDA       0.239467
     23 HC91         1.8390    -0.8850    -1.8720 hc         1 IDA       0.043700
     24 HC92         1.8400     0.8840    -1.8720 hc         1 IDA       0.043700
     25 HN1          4.0190    -2.0620    -0.9480 hn         1 IDA       0.118700
     26 HC2          4.0380     2.1130    -1.1120 ha         1 IDA       0.114000
     27 HC5          6.9430     2.3750    -0.2940 ha         1 IDA       0.098000
     28 H121         9.1800     2.2240     0.5260 hc         1 IDA       0.018200
     29 H122         9.9950     0.6620     0.6790 hc         1 IDA       0.018200
     30 H131         9.4450     2.1220    -1.9290 hc         1 IDA       0.013200
     31 H132        10.2600     0.5590    -1.7760 hc         1 IDA       0.013200
     32 H141        11.2140     3.1800    -0.5670 hc         1 IDA      -0.001633
     33 H142        11.9030     2.3920    -1.9940 hc         1 IDA      -0.001633
     34 H143        12.0280     1.6180    -0.4080 hc         1 IDA      -0.001633
     35 HC7          8.9240    -1.3840    -0.0400 ha         1 IDA       0.119000
     36 H111         6.0130    -3.3340    -1.0950 hc         1 IDA       0.013200
     37 H112         7.7520    -3.3720    -0.7720 hc         1 IDA       0.013200
     38 H23         -0.3340     0.0240     0.9430 hn         1 IDA       0.239467
@<TRIPOS>BOND
     1     1     2 1   
     2     1    21 1   
     3     1    22 1   
     4     1    38 1   
     5     2     3 2   
     6     2     4 1   
     7     4     5 1   
     8     4    23 1   
     9     4    24 1   
    10     5     6 1   
    11     5     9 2   
    12     6     7 1   
    13     6    25 1   
    14     7     8 ar  
    15     7    16 ar  
    16     8     9 1   
    17     8    10 ar  
    18     9    26 1   
    19    10    11 ar  
    20    10    27 1   
    21    11    12 1   
    22    11    15 ar  
    23    12    13 1   
    24    12    28 1   
    25    12    29 1   
    26    13    14 1   
    27    13    30 1   
    28    13    31 1   
    29    14    32 1   
    30    14    33 1   
    31    14    34 1   
    32    15    16 ar  
    33    15    35 1   
    34    16    17 1   
    35    17    18 1   
    36    17    36 1   
    37    17    37 1   
    38    18    19 1   
    39    18    20 1   
@<TRIPOS>SUBSTRUCTURE
     1 IDA         1 TEMP              0 ****  ****    0 ROOT
