@<TRIPOS>MOLECULE
molecule
   46    47     1     0     0
SMALL
bcc


@<TRIPOS>ATOM
      1 I1           0.0000     0.0000     0.0000 i          1 IDB      -0.127900
      2 I2           5.2270     0.0180    -3.0120 i          1 IDB      -0.216900
      3 I3           5.2520    -0.0080     3.0070 i          1 IDB      -0.171400
      4 O1           0.9930    -1.8340    -1.8720 o          1 IDB      -0.562600
      5 O2           1.7290    -1.1750     3.0690 o          1 IDB      -0.800550
      6 O3           1.7610     1.0450     3.0220 o          1 IDB      -0.800550
      7 N1           2.0920     0.0160    -2.4130 ns         1 IDB      -0.498100
      8 C1           2.7950     0.0000     1.2070 ca         1 IDB       0.009400
      9 C2           2.0940     0.0000     0.0000 ca         1 IDB       0.073400
     10 C3           2.7900     0.0110    -1.1990 ca         1 IDB       0.107100
     11 C4           4.1800     0.0110    -1.1970 ca         1 IDB       0.012400
     12 C5           4.8750     0.0050    -0.0010 ca         1 IDB      -0.066000
     13 C6           4.1920    -0.0000     1.1990 ca         1 IDB       0.057400
     14 C7           1.2330    -0.9820    -2.7010 c          1 IDB       0.646100
     15 C8           0.5710    -1.0400    -4.0540 c3         1 IDB      -0.150400
     16 C10         -0.3480    -2.2610    -4.1200 c3         1 IDB      -0.070400
     17 C11         -1.0210    -2.3190    -5.4920 c3         1 IDB      -0.070400
     18 O4          -2.3620    -2.7470    -7.7410 o          1 IDB      -0.562600
     19 O5          -5.3910    -1.7240   -11.6300 o          1 IDB      -0.800550
     20 O6          -7.2230    -2.6260   -10.7570 o          1 IDB      -0.800550
     21 N2          -3.4610    -4.5970    -7.1990 ns         1 IDB      -0.498100
     22 C12         -5.2450    -3.7870   -10.3250 ca         1 IDB       0.009400
     23 C13         -4.7220    -3.6690    -9.0350 ca         1 IDB       0.073400
     24 C14         -3.9920    -4.7130    -8.4890 ca         1 IDB       0.107100
     25 C15         -3.7900    -5.8780    -9.2210 ca         1 IDB       0.012400
     26 C16         -4.3140    -5.9980   -10.4960 ca         1 IDB      -0.066000
     27 C17         -5.0370    -4.9630   -11.0520 ca         1 IDB       0.057400
     28 C18         -2.6020    -3.5980    -6.9120 c          1 IDB       0.646100
     29 C19         -1.9400    -3.5410    -5.5580 c3         1 IDB      -0.150400
     30 H1           2.2100     0.7760    -3.0540 hn         1 IDB       0.325000
     31 H5           5.9580     0.0050    -0.0060 ha         1 IDB       0.133000
     32 H8C1        -0.0120    -0.1400    -4.2090 hc         1 IDB       0.059450
     33 H8C2         1.3290    -1.1160    -4.8240 hc         1 IDB       0.059450
     34 H101         0.2360    -3.1610    -3.9650 hc         1 IDB       0.056700
     35 H102        -1.1050    -2.1850    -3.3490 hc         1 IDB       0.056700
     36 H111        -0.2630    -2.3960    -6.2630 hc         1 IDB       0.056700
     37 H112        -1.6040    -1.4200    -5.6470 hc         1 IDB       0.056700
     38 HB          -3.7420    -5.2370    -6.4830 hn         1 IDB       0.325000
     39 H16         -4.1550    -6.9090   -11.0610 ha         1 IDB       0.133000
     40 H191        -2.6980    -3.4640    -4.7880 hc         1 IDB       0.059450
     41 H192        -1.3570    -4.4400    -5.4030 hc         1 IDB       0.059450
     42 I4          -5.0270    -1.9120    -7.9350 i          1 IDB      -0.127900
     43 I5          -2.6930    -7.4570    -8.3890 i          1 IDB      -0.216900
     44 I6          -5.8260    -5.1540   -12.9830 i          1 IDB      -0.171400
     45 C9           2.0620    -0.0060     2.4900 c          1 IDB       0.868700
     46 C20         -6.0190    -2.6780   -10.9150 c          1 IDB       0.868700
@<TRIPOS>BOND
     1     1     9 1
     2     2    11 1
     3     3    13 1
     4     4    14 2
     5     5    45 1
     6     6    45 1
     7     7    10 1
     8     7    14 1
     9     7    30 1
    10     8     9 ar
    11     8    13 ar
    12     8    45 1
    13     9    10 ar
    14    10    11 ar
    15    11    12 ar
    16    12    13 ar
    17    12    31 1
    18    14    15 1
    19    15    16 1
    20    15    32 1
    21    15    33 1
    22    16    17 1
    23    16    34 1
    24    16    35 1
    25    17    29 1
    26    17    36 1
    27    17    37 1
    28    42    23 1
    29    43    25 1
    30    44    27 1
    31    18    28 2
    32    19    46 1
    33    20    46 1
    34    21    24 1
    35    21    28 1
    36    21    38 1
    37    22    23 ar
    38    22    27 ar
    39    22    46 1
    40    23    24 ar
    41    24    25 ar
    42    25    26 ar
    43    26    27 ar
    44    26    39 1
    45    28    29 1
    46    29    40 1
    47    29    41 1
@<TRIPOS>SUBSTRUCTURE
     1 IDB         1 TEMP              0 ****  ****    0 ROOT
