@<TRIPOS>MOLECULE
molecule
   47    49     1     0     0
SMALL
bcc


@<TRIPOS>ATOM
      1 C1A          0.0000     0.0000     0.0000 c3         1 IDC       0.315900
      2 C2A          1.5320     0.0000     0.0000 c3         1 IDC       0.115100
      3 C3A          2.0310     0.0000     1.4480 c3         1 IDC       0.116100
      4 C4A          1.3790     1.1700     2.1910 c3         1 IDC       0.102100
      5 C5A         -0.1400     1.0810     2.0270 c3         1 IDC       0.134100
      6 C6A         -0.8030     2.2260     2.7940 c3         1 IDC       0.152400
      7 O2A          2.0090    -1.1660    -0.6730 oh         1 IDC      -0.599800
      8 O3A          3.4510     0.1490     1.4660 oh         1 IDC      -0.601800
      9 O4A          1.7140     1.1040     3.5780 oh         1 IDC      -0.602800
     10 O5A         -0.4820     1.1760     0.6460 os         1 IDC      -0.380600
     11 O6A         -2.2220     2.1410     2.6430 oh         1 IDC      -0.598800
     12 C1B         -4.5200    -0.7610    -2.0000 cc         1 IDC       0.360800
     13 C2B         -4.1330     0.6800    -1.7620 c3         1 IDC       0.125800
     14 C3B         -2.6290     0.8220    -2.0300 c3         1 IDC       0.136100
     15 C4B         -1.8770    -0.2850    -1.2860 c3         1 IDC       0.119100
     16 C5B         -2.1810    -1.6370    -1.9390 c3         1 IDC       0.039000
     17 C6B         -1.6350    -2.7660    -1.0640 c3         1 IDC       0.125400
     18 O2B         -4.8620     1.5280    -2.6500 oh         1 IDC      -0.584800
     19 O3B         -2.1800     2.0980    -1.5680 oh         1 IDC      -0.575800
     20 O4B         -0.4740    -0.0310    -1.3480 os         1 IDC      -0.364600
     21 N1B         -3.6320    -1.7790    -2.0760 na         1 IDC      -0.177900
     22 O6B         -1.9330    -4.0250    -1.6700 oh         1 IDC      -0.610800
     23 N2B         -5.7180    -1.2400    -2.1620 nd         1 IDC      -0.678000
     24 C7B         -5.6410    -2.5670    -2.3480 cd         1 IDC       0.292200
     25 C8B         -4.3410    -2.9220    -2.2980 cc         1 IDC      -0.240600
     26 HC1A        -0.3580    -0.8730     0.5320 h2         1 IDC       0.038700
     27 HC2A         1.8920     0.8880    -0.5050 h1         1 IDC       0.072700
     28 HC3A         1.7520    -0.9310     1.9260 h1         1 IDC       0.059700
     29 HC4A         1.7320     2.1050     1.7720 h1         1 IDC       0.063700
     30 HC5A        -0.4870     0.1320     2.4170 h1         1 IDC       0.057700
     31 HCA1        -0.4540     3.1740     2.4020 h1         1 IDC       0.037700
     32 HCA2        -0.5460     2.1540     3.8440 h1         1 IDC       0.037700
     33 HO2A         2.6520    -0.9170    -1.3150 ho         1 IDC       0.419000
     34 HO3A         3.8380    -0.5780     1.9250 ho         1 IDC       0.416000
     35 HO4A         2.3430     1.7750     3.7820 ho         1 IDC       0.415000
     36 HO6A        -2.6400     2.7000     3.2780 ho         1 IDC       0.404000
     37 HC2B        -4.3460     0.9490    -0.7350 h1         1 IDC       0.071700
     38 HC3B        -2.4430     0.7320    -3.0940 h1         1 IDC       0.061700
     39 HC4B        -2.2000    -0.3050    -0.2520 h1         1 IDC       0.079700
     40 HC5B        -1.7200    -1.6760    -2.9190 h1         1 IDC       0.089700
     41 HCB1        -2.0950    -2.7190    -0.0840 h1         1 IDC       0.043700
     42 HCB2        -0.5610    -2.6590    -0.9640 h1         1 IDC       0.043700
     43 HO2B        -5.5610     1.9470    -2.1750 ho         1 IDC       0.417000
     44 HO3B        -2.0430     2.6640    -2.3090 ho         1 IDC       0.410000
     45 HO6B        -1.3530    -4.6850    -1.3260 ho         1 IDC       0.410000
     46 HC7B        -6.4770    -3.2360    -2.5160 h4         1 IDC       0.040100
     47 HC8B        -3.9380    -3.9210    -2.4110 h4         1 IDC       0.195000
@<TRIPOS>BOND
     1     1     2 1
     2     1    10 1
     3     1    20 1
     4     1    26 1
     5     2     3 1
     6     2     7 1
     7     2    27 1
     8     3     4 1
     9     3     8 1
    10     3    28 1
    11     4     5 1
    12     4     9 1
    13     4    29 1
    14     5     6 1
    15     5    10 1
    16     5    30 1
    17     6    11 1
    18     6    31 1
    19     6    32 1
    20     7    33 1
    21     8    34 1
    22     9    35 1
    23    11    36 1
    24    12    13 1
    25    12    21 1
    26    12    23 2
    27    13    14 1
    28    13    18 1
    29    13    37 1
    30    14    15 1
    31    14    19 1
    32    14    38 1
    33    15    16 1
    34    15    20 1
    35    15    39 1
    36    16    17 1
    37    16    21 1
    38    16    40 1
    39    17    22 1
    40    17    41 1
    41    17    42 1
    42    18    43 1
    43    19    44 1
    44    21    25 1
    45    22    45 1
    46    23    24 1
    47    24    25 2
    48    24    46 1
    49    25    47 1
@<TRIPOS>SUBSTRUCTURE
     1 IDC         1 TEMP              0 ****  ****    0 ROOT
