@<TRIPOS>MOLECULE
IDC
   47    49     1     0     0
SMALL
bcc


@<TRIPOS>ATOM
      1 C1A        -0.1030   -0.1690    0.4530 c3        1 IDC      0.308900
      2 C2A         1.4210   -0.2520    0.2340 c3        1 IDC      0.084100
      3 C3A         2.1270    0.0390    1.5660 c3        1 IDC      0.108100
      4 C4A         1.6370    1.3850    2.1330 c3        1 IDC      0.122100
      5 C5A         0.1050    1.3880    2.2370 c3        1 IDC      0.104100
      6 C6A        -0.4310    2.7770    2.6030 c3        1 IDC      0.149400
      7 O2A         1.7860   -1.5660   -0.1490 oh        1 IDC     -0.604800
      8 O3A         3.5250    0.1670    1.3800 oh        1 IDC     -0.602800
      9 O4A         2.1420    1.5750    3.4420 oh        1 IDC     -0.592800
     10 O5A        -0.4850    1.0920    0.9690 os        1 IDC     -0.419600
     11 O6A        -1.8400    2.7850    2.6210 oh        1 IDC     -0.602800
     12 C1B        -4.5730   -0.7710   -2.2870 cc        1 IDC      0.342800
     13 C2B        -4.3400    0.5330   -1.5890 c3        1 IDC      0.096800
     14 C3B        -2.8320    0.8030   -1.3840 c3        1 IDC      0.139100
     15 C4B        -2.1090   -0.4380   -0.8370 c3        1 IDC      0.147100
     16 C5B        -2.2640   -1.6670   -1.7820 c3        1 IDC      0.035000
     17 C6B        -1.8000   -2.9170   -1.0020 c3        1 IDC      0.115400
     18 O2B        -4.8120    1.6420   -2.3340 oh        1 IDC     -0.601800
     19 O3B        -2.6920    1.8250   -0.4110 oh        1 IDC     -0.589800
     20 O4B        -0.7030   -0.1710   -0.8280 os        1 IDC     -0.409600
     21 N1B        -3.5930   -1.7830   -2.3170 na        1 IDC     -0.188900
     22 O6B        -1.5870   -3.9470   -1.9510 oh        1 IDC     -0.602800
     23 N2B        -5.6980   -1.1710   -2.9310 nd        1 IDC     -0.662000
     24 C7B        -5.4370   -2.4570   -3.3920 cd        1 IDC      0.285200
     25 C8B        -4.1360   -2.8550   -3.0240 cc        1 IDC     -0.225600
     26 HC1A       -0.4740   -1.0070    1.1050 h2        1 IDC      0.049700
     27 HC2A        1.7370    0.4910   -0.5490 h1        1 IDC      0.082700
     28 HC3A        1.9180   -0.7910    2.2990 h1        1 IDC      0.063700
     29 HC4A        1.9860    2.2190    1.4610 h1        1 IDC      0.065700
     30 HC5A       -0.2300    0.6270    2.9950 h1        1 IDC      0.065700
     31 HCA1       -0.0430    3.5370    1.8750 h1        1 IDC      0.059700
     32 HCA2       -0.1070    3.0340    3.6460 h1        1 IDC      0.059700
     33 HO2A        1.4240   -1.7040   -1.0340 ho        1 IDC      0.422000
     34 HO3A        3.8260   -0.6560    0.9730 ho        1 IDC      0.426000
     35 HO4A        3.1050    1.5160    3.3730 ho        1 IDC      0.425000
     36 HO6A       -2.1410    2.5180    1.7390 ho        1 IDC      0.427000
     37 HC2B       -4.8610    0.5090   -0.5880 h1        1 IDC      0.069700
     38 HC3B       -2.3630    1.1230   -2.3550 h1        1 IDC      0.076700
     39 HC4B       -2.4910   -0.6710    0.1930 h1        1 IDC      0.078700
     40 HC5B       -1.5500   -1.5300   -2.6540 h1        1 IDC      0.095700
     41 HCB1       -2.5620   -3.2340   -0.2420 h1        1 IDC      0.042200
     42 HCB2       -0.8320   -2.6660   -0.4860 h1        1 IDC      0.042200
     43 HO2B       -5.7250    1.4590   -2.5920 ho        1 IDC      0.435000
     44 HO3B       -3.0790    2.6210   -0.8030 ho        1 IDC      0.423000
     45 HO6B       -1.3140   -4.7290   -1.4560 ho        1 IDC      0.412000
     46 HC7B       -6.1810   -3.0200   -3.9540 h4        1 IDC      0.045100
     47 HC8B       -3.5730   -3.7720   -3.1960 h4        1 IDC      0.197000
@<TRIPOS>BOND
     1    1    2 1   
     2    1   10 1   
     3    1   20 1   
     4    1   26 1   
     5    2    3 1   
     6    2    7 1   
     7    2   27 1   
     8    3    4 1   
     9    3    8 1   
    10    3   28 1   
    11    4    5 1   
    12    4    9 1   
    13    4   29 1   
    14    5    6 1   
    15    5   10 1   
    16    5   30 1   
    17    6   11 1   
    18    6   31 1   
    19    6   32 1   
    20    7   33 1   
    21    8   34 1   
    22    9   35 1   
    23   11   36 1   
    24   12   13 1   
    25   12   21 1   
    26   12   23 2   
    27   13   14 1   
    28   13   18 1   
    29   13   37 1   
    30   14   15 1   
    31   14   19 1   
    32   14   38 1   
    33   15   16 1   
    34   15   20 1   
    35   15   39 1   
    36   16   17 1   
    37   16   21 1   
    38   16   40 1   
    39   17   22 1   
    40   17   41 1   
    41   17   42 1   
    42   18   43 1   
    43   19   44 1   
    44   21   25 1   
    45   22   45 1   
    46   23   24 1   
    47   24   25 2   
    48   24   46 1   
    49   25   47 1   
@<TRIPOS>SUBSTRUCTURE
     1 IDC         1 TEMP              0 ****  ****    0 ROOT
