@<TRIPOS>MOLECULE
molecule
   36    38     1     0     0
SMALL
bcc


@<TRIPOS>ATOM
      1 C1           0.0000     0.0000     0.0000 ca         1 IDD      -0.096500
      2 C2           1.3930     0.0000     0.0000 ca         1 IDD      -0.112000
      3 C3           2.0810     0.0000     1.1970 ca         1 IDD      -0.132500
      4 C4           1.3900    -0.0010     2.3950 ca         1 IDD      -0.131000
      5 C5           0.0060    -0.0010     2.4010 ca         1 IDD      -0.132500
      6 C6          -0.6910     0.0050     1.2100 ca         1 IDD      -0.112000
      7 C1B         -1.2980    -0.4570    -3.3200 cc         1 IDD       0.362800
      8 C2B         -1.3250    -1.0250    -4.7200 c3         1 IDD       0.130800
      9 C3B         -2.2760    -0.1700    -5.5670 c3         1 IDD       0.122100
     10 C4B         -3.5950     0.0150    -4.8110 c3         1 IDD       0.132100
     11 C5B         -3.3660     0.9190    -3.5950 c3         1 IDD       0.047000
     12 C6B         -4.6120     0.9100    -2.7070 c3         1 IDD       0.130400
     13 O2B         -0.0110    -0.9860    -5.2830 oh         1 IDD      -0.581800
     14 O3B         -2.5270    -0.8230    -6.8120 oh         1 IDD      -0.600800
     15 O4B         -4.5600     0.6160    -5.6770 oh         1 IDD      -0.594800
     16 N1B         -2.2180     0.4140    -2.8370 na         1 IDD      -0.178900
     17 O6B         -4.4380     1.8380    -1.6340 oh         1 IDD      -0.609800
     18 N2B         -0.4220    -0.7010    -2.3910 nd         1 IDD      -0.663000
     19 C7B         -0.7450    -0.0010    -1.2820 cd         1 IDD       0.349800
     20 C8B         -1.8760     0.7050    -1.5530 cc         1 IDD      -0.218600
     21 H21          1.9360    -0.0020    -0.9380 ha         1 IDD       0.137500
     22 H31          3.1640     0.0000     1.1970 ha         1 IDD       0.127500
     23 H41          1.9340    -0.0030     3.3320 ha         1 IDD       0.126000
     24 H51         -0.5300     0.0000     3.3420 ha         1 IDD       0.127500
     25 H61         -1.7740     0.0050     1.2160 ha         1 IDD       0.137500
     26 H2B1        -1.6840    -2.0460    -4.6910 h1         1 IDD       0.064700
     27 H3B1        -1.8260     0.7990    -5.7460 h1         1 IDD       0.069700
     28 H4B1        -3.9560    -0.9510    -4.4770 h1         1 IDD       0.053700
     29 H5B1        -3.1610     1.9290    -3.9300 h1         1 IDD       0.093700
     30 H6B1        -4.7620    -0.0840    -2.3040 h1         1 IDD       0.043200
     31 H6B2        -5.4770     1.1950    -3.2940 h1         1 IDD       0.043200
     32 HO21         0.3470    -1.8570    -5.3050 ho         1 IDD       0.417000
     33 HO31        -2.1360    -0.3270    -7.5120 ho         1 IDD       0.420000
     34 HO41        -5.1840    -0.0340    -5.9520 ho         1 IDD       0.419000
     35 HO61        -5.2820     2.1180    -1.3210 ho         1 IDD       0.411000
     36 H8B1        -2.2860     1.5070    -0.9510 h4         1 IDD       0.199000
@<TRIPOS>BOND
     1     1     2 ar
     2     1     6 ar
     3     1    19 1
     4     2     3 ar
     5     2    21 1
     6     3     4 ar
     7     3    22 1
     8     4     5 ar
     9     4    23 1
    10     5     6 ar
    11     5    24 1
    12     6    25 1
    13     7     8 1
    14     7    16 1
    15     7    18 2
    16     8     9 1
    17     8    13 1
    18     8    26 1
    19     9    10 1
    20     9    14 1
    21     9    27 1
    22    10    11 1
    23    10    15 1
    24    10    28 1
    25    11    12 1
    26    11    16 1
    27    11    29 1
    28    12    17 1
    29    12    30 1
    30    12    31 1
    31    13    32 1
    32    14    33 1
    33    15    34 1
    34    16    20 1
    35    17    35 1
    36    18    19 1
    37    19    20 2
    38    20    36 1
@<TRIPOS>SUBSTRUCTURE
     1 IDD         1 TEMP              0 ****  ****    0 ROOT
