@<TRIPOS>MOLECULE
IDD
   36    38     1     0     0
SMALL
bcc


@<TRIPOS>ATOM
      1 C1          0.0590   -0.0090   -0.0270 ca        1 IDD     -0.098500
      2 C2          1.4050   -0.4050   -0.0090 ca        1 IDD     -0.117000
      3 C3          2.1230   -0.3900    1.1860 ca        1 IDD     -0.133000
      4 C4          1.5120    0.0180    2.3710 ca        1 IDD     -0.132000
      5 C5          0.1740    0.4100    2.3600 ca        1 IDD     -0.133000
      6 C6         -0.5500    0.3970    1.1710 ca        1 IDD     -0.117000
      7 C1B        -1.2840   -0.4260   -3.3430 cc        1 IDD      0.342800
      8 C2B        -1.3460   -0.9270   -4.7560 c3        1 IDD      0.102800
      9 C3B        -2.3350   -0.0780   -5.5790 c3        1 IDD      0.106100
     10 C4B        -3.6700    0.0720   -4.8320 c3        1 IDD      0.141100
     11 C5B        -3.4740    0.8390   -3.4960 c3        1 IDD      0.049000
     12 C6B        -4.7860    0.7190   -2.6930 c3        1 IDD      0.118400
     13 O2B        -0.1070   -0.8260   -5.4340 oh        1 IDD     -0.603800
     14 O3B        -2.6400   -0.7250   -6.8030 oh        1 IDD     -0.611800
     15 O4B        -4.5830    0.8490   -5.5880 oh        1 IDD     -0.600800
     16 N1B        -2.3090    0.3690   -2.7880 na        1 IDD     -0.185900
     17 O6B        -4.7190    1.6550   -1.6310 oh        1 IDD     -0.607800
     18 N2B        -0.3090   -0.6660   -2.4370 nd        1 IDD     -0.653000
     19 C7B        -0.7050   -0.0110   -1.2600 cd        1 IDD      0.342800
     20 C8B        -1.9490    0.6350   -1.4730 cc        1 IDD     -0.198600
     21 H21         1.8990   -0.7280   -0.9380 ha        1 IDD      0.138000
     22 H31         3.1780   -0.7020    1.1910 ha        1 IDD      0.129500
     23 H41         2.0830    0.0290    3.3110 ha        1 IDD      0.129000
     24 H51        -0.3130    0.7310    3.2920 ha        1 IDD      0.129500
     25 H61        -1.6070    0.7030    1.1710 ha        1 IDD      0.138000
     26 H2B1       -1.6770   -2.0060   -4.7480 h1        1 IDD      0.068700
     27 H3B1       -1.8860    0.9330   -5.7870 h1        1 IDD      0.075700
     28 H4B1       -4.1120   -0.9450   -4.6420 h1        1 IDD      0.060700
     29 H5B1       -3.3190    1.9370   -3.7320 h1        1 IDD      0.097700
     30 H6B1       -5.6350    0.9630   -3.3880 h1        1 IDD      0.051200
     31 H6B2       -4.9200   -0.3160   -2.2790 h1        1 IDD      0.051200
     32 HO21        0.5740   -1.2120   -4.8680 ho        1 IDD      0.436000
     33 HO31       -1.7980   -0.8590   -7.2600 ho        1 IDD      0.433000
     34 HO41       -4.5790    0.4860   -6.4860 ho        1 IDD      0.434000
     35 HO61       -5.6110    1.7320   -1.2720 ho        1 IDD      0.412000
     36 H8B1       -2.5770    1.2410   -0.8170 h4        1 IDD      0.202000
@<TRIPOS>BOND
     1    1    2 ar  
     2    1    6 ar  
     3    1   19 1   
     4    2    3 ar  
     5    2   21 1   
     6    3    4 ar  
     7    3   22 1   
     8    4    5 ar  
     9    4   23 1   
    10    5    6 ar  
    11    5   24 1   
    12    6   25 1   
    13    7    8 1   
    14    7   16 1   
    15    7   18 2   
    16    8    9 1   
    17    8   13 1   
    18    8   26 1   
    19    9   10 1   
    20    9   14 1   
    21    9   27 1   
    22   10   11 1   
    23   10   15 1   
    24   10   28 1   
    25   11   12 1   
    26   11   16 1   
    27   11   29 1   
    28   12   17 1   
    29   12   30 1   
    30   12   31 1   
    31   13   32 1   
    32   14   33 1   
    33   15   34 1   
    34   16   20 1   
    35   17   35 1   
    36   18   19 1   
    37   19   20 2   
    38   20   36 1   
@<TRIPOS>SUBSTRUCTURE
     1 IDD         1 TEMP              0 ****  ****    0 ROOT
