@<TRIPOS>MOLECULE
molecule
   41    43     1     0     0
SMALL
bcc


@<TRIPOS>ATOM
      1 O6B          0.0000     0.0000     0.0000 oh         1 IDE      -0.609800
      2 C6B          1.4280     0.0000     0.0000 c3         1 IDE       0.129400
      3 C5B          1.9380     0.0000     1.4430 c3         1 IDE       0.041000
      4 C4B          3.4670     0.1180     1.4470 c3         1 IDE       0.129100
      5 O4B          3.8450     1.4280     1.0180 oh         1 IDE      -0.591800
      6 C3B          3.9940    -0.1270     2.8640 c3         1 IDE       0.125100
      7 O3B          5.3850     0.1960     2.9180 oh         1 IDE      -0.598800
      8 C2B          3.7960    -1.6040     3.2280 c3         1 IDE       0.134800
      9 O2B          4.0330    -1.7920     4.6250 oh         1 IDE      -0.579800
     10 N1B          1.5570    -1.2530     2.0990 na         1 IDE      -0.177900
     11 C8B          0.3630    -1.9030     2.0310 cc         1 IDE      -0.213600
     12 C7B          0.4810    -3.0110     2.7890 cd         1 IDE       0.269600
     13 N2B          1.7210    -3.0350     3.3050 nd         1 IDE      -0.659000
     14 C1B          2.3730    -1.9860     2.8960 cc         1 IDE       0.363800
     15 C7          -0.5930    -4.0450     3.0200 c3         1 IDE       0.231500
     16 N1          -0.4230    -5.1450     2.0680 nu         1 IDE      -0.824600
     17 C1          -1.3050    -6.2280     2.0870 ca         1 IDE       0.207600
     18 C6          -1.1460    -7.2720     1.1850 ca         1 IDE      -0.211500
     19 C5          -2.0200    -8.3410     1.2080 ca         1 IDE      -0.082500
     20 C4          -3.0520    -8.3730     2.1270 ca         1 IDE      -0.191000
     21 C3          -3.2140    -7.3360     3.0270 ca         1 IDE      -0.082500
     22 C2          -2.3410    -6.2650     3.0130 ca         1 IDE      -0.211500
     23 H6B         -0.3140     0.3730    -0.8070 ho         1 IDE       0.413000
     24 H6B1         1.7900     0.8850    -0.5110 h1         1 IDE       0.042200
     25 H6B2         1.7900    -0.8840    -0.5110 h1         1 IDE       0.042200
     26 H5B          1.5110     0.8350     1.9840 h1         1 IDE       0.094700
     27 H4B          3.8860    -0.6220     0.7760 h1         1 IDE       0.053700
     28 H3           4.4380     1.3600     0.2890 ho         1 IDE       0.417000
     29 H3B          3.4460     0.4930     3.5640 h1         1 IDE       0.069700
     30 H2           5.5290     0.8560     3.5760 ho         1 IDE       0.420000
     31 H2B          4.4800    -2.2150     2.6520 h1         1 IDE       0.064700
     32 H1           4.6210    -2.5180     4.7500 ho         1 IDE       0.417000
     33 H8B         -0.5130    -1.5890     1.4770 h4         1 IDE       0.200000
     34 H71         -0.5150    -4.4270     4.0310 h1         1 IDE       0.049200
     35 H72         -1.5670    -3.5920     2.8790 h1         1 IDE       0.049200
     36 HN1          0.3380    -5.1310     1.4180 hn         1 IDE       0.441800
     37 H8          -0.3370    -7.2480     0.4640 ha         1 IDE       0.128000
     38 H7          -1.8970    -9.1560     0.5050 ha         1 IDE       0.124500
     39 H6          -3.7370    -9.2120     2.1410 ha         1 IDE       0.124000
     40 H5          -4.0230    -7.3650     3.7470 ha         1 IDE       0.124500
     41 H4          -2.4680    -5.4530     3.7180 ha         1 IDE       0.128000
@<TRIPOS>BOND
     1     1     2 1
     2     1    23 1
     3     2     3 1
     4     2    24 1
     5     2    25 1
     6     3     4 1
     7     3    10 1
     8     3    26 1
     9     4     5 1
    10     4     6 1
    11     4    27 1
    12     5    28 1
    13     6     7 1
    14     6     8 1
    15     6    29 1
    16     7    30 1
    17     8     9 1
    18     8    14 1
    19     8    31 1
    20     9    32 1
    21    10    11 1
    22    10    14 1
    23    11    12 2
    24    11    33 1
    25    12    13 1
    26    12    15 1
    27    13    14 2
    28    15    16 1
    29    15    34 1
    30    15    35 1
    31    16    17 1
    32    16    36 1
    33    17    18 ar
    34    17    22 ar
    35    18    19 ar
    36    18    37 1
    37    19    20 ar
    38    19    38 1
    39    20    21 ar
    40    20    39 1
    41    21    22 ar
    42    21    40 1
    43    22    41 1
@<TRIPOS>SUBSTRUCTURE
     1 IDE         1 TEMP              0 ****  ****    0 ROOT
