@<TRIPOS>MOLECULE
IDF
   21    21     1     0     0
SMALL
bcc


@<TRIPOS>ATOM
      1 O6B         0.1530    0.7600   -0.0090 o         1 IDF     -0.784800
      2 C6          1.2590    0.1610   -0.0440 c         1 IDF      0.947600
      3 O6A         1.7780   -0.4200   -1.0180 o         1 IDF     -0.784800
      4 C5          2.1200    0.1890    1.3020 c3        1 IDF      0.183100
      5 O5          1.4340   -0.6200    2.2470 os        1 IDF     -0.422600
      6 F5          3.3370   -0.4390    1.1350 f         1 IDF     -0.249300
      7 C4          2.3370    1.6350    1.8340 c3        1 IDF      0.087100
      8 O4          1.1340    2.3530    2.0220 oh        1 IDF     -0.646800
      9 C3          3.0250    1.6290    3.2130 c3        1 IDF      0.107100
     10 O3          4.3880    1.2710    3.1220 oh        1 IDF     -0.606800
     11 C2          2.2810    0.7070    4.1910 c3        1 IDF      0.075100
     12 O2          1.0990    1.3060    4.6730 oh        1 IDF     -0.605800
     13 C1          1.9380   -0.6680    3.5620 c3        1 IDF      0.319400
     14 F1          3.0420   -1.4920    3.5160 f         1 IDF     -0.260300
     15 H2          2.9850    2.1800    1.0930 h1        1 IDF      0.060700
     16 H3          0.5020    2.0830    1.3320 ho        1 IDF      0.471000
     17 H4          3.0270    2.6750    3.6310 h1        1 IDF      0.087700
     18 H5          4.4320    0.3920    2.7150 ho        1 IDF      0.425000
     19 H6          2.9180    0.5350    5.1040 h1        1 IDF      0.078700
     20 H7          0.5760    1.5730    3.8990 ho        1 IDF      0.438000
     21 H8          1.1120   -1.1600    4.1580 h2        1 IDF      0.081700
@<TRIPOS>BOND
     1    1    2 1   
     2    2    3 1   
     3    2    4 1   
     4    4    5 1   
     5    4    6 1   
     6    4    7 1   
     7    5   13 1   
     8    7    8 1   
     9    7    9 1   
    10    7   15 1   
    11    8   16 1   
    12    9   10 1   
    13    9   11 1   
    14    9   17 1   
    15   10   18 1   
    16   11   12 1   
    17   11   13 1   
    18   11   19 1   
    19   12   20 1   
    20   13   14 1   
    21   13   21 1   
@<TRIPOS>SUBSTRUCTURE
     1 IDF         1 TEMP              0 ****  ****    0 ROOT
