@<TRIPOS>MOLECULE
molecule
   21    21     1     0     0
SMALL
bcc


@<TRIPOS>ATOM
      1 O6B          0.0000     0.0000     0.0000 o          1 IDF      -0.806300
      2 C6           1.2080     0.0000     0.0000 c          1 IDF       0.895600
      3 O6A          1.8790     0.0060    -1.1630 o          1 IDF      -0.806300
      4 C5           1.9630     0.0000     1.3040 c3         1 IDF       0.270100
      5 O5           1.1420    -0.5680     2.3280 os         1 IDF      -0.379600
      6 F5           3.1310    -0.7580     1.1680 f          1 IDF      -0.232300
      7 C4           2.3270     1.4370     1.6840 c3         1 IDF       0.108100
      8 O4           1.1380     2.2250     1.7710 oh         1 IDF      -0.548800
      9 C3           3.0400     1.4350     3.0390 c3         1 IDF       0.110100
     10 O3           4.2620     0.7010     2.9360 oh         1 IDF      -0.566800
     11 C2           2.1320     0.7720     4.0790 c3         1 IDF       0.088100
     12 O2           0.9380     1.5420     4.2320 oh         1 IDF      -0.549800
     13 C1           1.7750    -0.6400     3.6080 c3         1 IDF       0.351400
     14 F1           2.9400    -1.4090     3.5110 f          1 IDF      -0.245300
     15 H2           2.9860     1.8520     0.9310 h1         1 IDF       0.059700
     16 H3           1.2700     3.0440     1.3230 ho         1 IDF       0.383000
     17 H4           3.2480     2.4550     3.3400 h1         1 IDF       0.022700
     18 H5           4.9870     1.2670     3.1420 ho         1 IDF       0.383000
     19 H6           2.6540     0.7130     5.0270 h1         1 IDF       0.021700
     20 H7           0.7830     1.7030     5.1480 ho         1 IDF       0.377000
     21 H8           1.0960    -1.0950     4.3190 h2         1 IDF       0.064700
@<TRIPOS>BOND
     1    14    13 1
     2    13    11 1
     3    13     5 1
     4     6     4 1
     5    12    11 1
     6    11     9 1
     7     5     4 1
     8     4     2 1
     9     4     7 1
    10     1     2 1
    11     2     3 1
    12     9    10 1
    13     9     7 1
    14     7     8 1
    15     7    15 1
    16     8    16 1
    17     9    17 1
    18    10    18 1
    19    11    19 1
    20    12    20 1
    21    13    21 1
@<TRIPOS>SUBSTRUCTURE
     1 IDF         1 TEMP              0 ****  ****    0 ROOT
