@<TRIPOS>MOLECULE
IDH
   14    14     1     0     0
SMALL
bcc


@<TRIPOS>ATOM
      1 N1           0.0000     0.0000     0.0000 ns         1 IDH      -0.200900
      2 C2           1.3420     0.0000     0.0000 c          1 IDH       0.605500
      3 O2           1.9350     0.0010    -1.0610 o          1 IDH      -0.699500
      4 N3           2.0450     0.0000     1.1440 ns         1 IDH      -0.151500
      5 C4           1.4480    -0.2430     2.3250 c          1 IDH       0.591500
      6 O4           2.0830    -0.1600     3.3550 o          1 IDH      -0.608500
      7 C5          -0.0120    -0.6150     2.3680 c3         1 IDH       0.182200
      8 C6          -0.7530     0.1220     1.2500 c3         1 IDH       0.035000
      9 I5          -0.8460    -0.0540     4.2800 i          1 IDH      -0.311900
     10 H1          -0.4930    -0.0840    -0.8670 hn         1 IDH       0.206500
     11 H3           3.0290     0.1830     1.1180 hn         1 IDH       0.211500
     12 H5          -0.1150    -1.6840     2.2230 h1         1 IDH       0.066700
     13 H6C1        -1.7360    -0.3150     1.1220 h1         1 IDH       0.036700
     14 H6C2        -0.8480     1.1690     1.5120 h1         1 IDH       0.036700
@<TRIPOS>BOND
     1     1     2 1   
     2     1     8 1   
     3     1    10 1   
     4     2     3 2   
     5     2     4 1   
     6     4     5 1   
     7     4    11 1   
     8     5     6 2   
     9     5     7 1   
    10     7     8 1   
    11     7     9 1   
    12     7    12 1   
    13     8    13 1   
    14     8    14 1   
@<TRIPOS>SUBSTRUCTURE
     1 IDH         1 TEMP              0 ****  ****    0 ROOT
