@<TRIPOS>MOLECULE
molecule
   21    22     1     0     0
SMALL
bcc


@<TRIPOS>ATOM
      1 I            0.0000     0.0000     0.0000 i          1 IDI      -0.174900
      2 C4           4.3330     0.0000     0.0000 ca         1 IDI      -0.130000
      3 C5           3.0070     0.0000     0.3840 ca         1 IDI      -0.098000
      4 C6           2.0140     0.0000    -0.5780 ca         1 IDI       0.052900
      5 C7           2.3490    -0.0030    -1.9150 ca         1 IDI      -0.095000
      6 C8           3.6800     0.0030    -2.3030 ca         1 IDI      -0.075300
      7 C9           4.6700     0.0020    -1.3440 ca         1 IDI      -0.048300
      8 C1           4.0080     0.0030    -3.7720 c3         1 IDI       0.195100
      9 C2           6.2620    -0.3750    -3.2080 c3         1 IDI       0.142800
     10 C3           6.1270     0.0040    -1.7330 c3         1 IDI      -0.032100
     11 N1           5.3730     0.4860    -4.0000 n7         1 IDI      -0.795200
     12 HC51         2.7470    -0.0860     1.4320 ha         1 IDI       0.141000
     13 HC71         1.5680    -0.0110    -2.6670 ha         1 IDI       0.140000
     14 HC11         3.9200    -1.0060    -4.1560 h1         1 IDI       0.044200
     15 HC12         3.3120     0.6510    -4.2920 h1         1 IDI       0.044200
     16 HC21         5.9570    -1.4070    -3.3350 h1         1 IDI       0.038700
     17 HC22         7.2850    -0.2070    -3.5220 h1         1 IDI       0.038700
     18 HC31         6.6620    -0.7160    -1.1260 hc         1 IDI       0.060200
     19 HC32         6.5390     0.9930    -1.5770 hc         1 IDI       0.060200
     20 HN11         5.6000     0.3980    -4.9700 hn         1 IDI       0.354800
     21 HC41         5.1130    -0.0000     0.7520 ha         1 IDI       0.136000
@<TRIPOS>BOND
     1     1     4 1
     2     2     3 ar
     3     2     7 ar
     4     2    21 1
     5     3     4 ar
     6     3    12 1
     7     4     5 ar
     8     5     6 ar
     9     5    13 1
    10     6     7 ar
    11     6     8 1
    12     7    10 1
    13     8    11 1
    14     8    14 1
    15     8    15 1
    16     9    10 1
    17     9    11 1
    18     9    16 1
    19     9    17 1
    20    10    18 1
    21    10    19 1
    22    11    20 1
@<TRIPOS>SUBSTRUCTURE
     1 IDI         1 TEMP              0 ****  ****    0 ROOT
