@<TRIPOS>MOLECULE
molecule
   22    22     1     0     0
SMALL
bcc


@<TRIPOS>ATOM
      1 O6B          0.0000     0.0000     0.0000 o          1 IDJ      -0.838300
      2 C6           1.3430     0.0000     0.0000 c          1 IDJ       0.893600
      3 O6A          1.9470     0.0000     1.0460 o          1 IDJ      -0.838300
      4 C5           2.0960    -0.0000    -1.3050 c3         1 IDJ       0.063500
      5 N5           3.4670    -0.4740    -1.0780 n7         1 IDJ      -0.764200
      6 C4           2.1340     1.4210    -1.8730 c3         1 IDJ       0.172100
      7 O4           2.7740     2.2910    -0.9370 oh         1 IDJ      -0.547800
      8 C3           2.9170     1.4190    -3.1880 c3         1 IDJ       0.110100
      9 O3           2.2500     0.5890    -4.1400 oh         1 IDJ      -0.598800
     10 C2           4.3260     0.8750    -2.9340 c3         1 IDJ       0.151100
     11 O2           5.0120     1.7350    -2.0200 oh         1 IDJ      -0.546800
     12 C1           4.2250    -0.5300    -2.3350 c3         1 IDJ       0.146800
     13 H2           1.6020    -0.6560    -2.0120 h1         1 IDJ       0.027700
     14 H3           3.4410    -1.3850    -0.6640 hn         1 IDJ       0.353800
     15 H5           1.1220     1.7610    -2.0570 h1         1 IDJ       0.042700
     16 H6           2.2400     3.0570    -0.8050 ho         1 IDJ       0.373000
     17 H7           2.9850     2.4310    -3.5670 h1         1 IDJ       0.015700
     18 H8           2.0190     1.1020    -4.8970 ho         1 IDJ       0.384000
     19 H9           4.8680     0.8290    -3.8700 h1         1 IDJ      -0.000300
     20 H10          5.8540     1.9650    -2.3770 ho         1 IDJ       0.366000
     21 H11          5.2200    -0.9100    -2.1380 h1         1 IDJ       0.017700
     22 H12          3.7160    -1.1830    -3.0340 h1         1 IDJ       0.017700
@<TRIPOS>BOND
     1    12     5 1
     2    12    10 1
     3     5     4 1
     4    11    10 1
     5    10     8 1
     6     4     2 1
     7     4     6 1
     8     2     3 1
     9     2     1 1
    10     8     6 1
    11     8     9 1
    12     6     7 1
    13     4    13 1
    14     5    14 1
    15     6    15 1
    16     7    16 1
    17     8    17 1
    18     9    18 1
    19    10    19 1
    20    11    20 1
    21    12    21 1
    22    12    22 1
@<TRIPOS>SUBSTRUCTURE
     1 IDJ         1 TEMP              0 ****  ****    0 ROOT
