@<TRIPOS>MOLECULE
IDJ
   22    22     1     0     0
SMALL
bcc


@<TRIPOS>ATOM
      1 O6B          0.0000     0.0000     0.0000 o          1 IDJ      -0.889800
      2 C6           1.3430     0.0000     0.0000 c          1 IDJ       0.979600
      3 O6A          1.9470     0.0000     1.0460 o          1 IDJ      -0.889800
      4 C5           2.0960    -0.0000    -1.3050 c3         1 IDJ       0.000500
      5 N5           3.4670    -0.4740    -1.0780 n7         1 IDJ      -0.518200
      6 C4           2.1340     1.4210    -1.8730 c3         1 IDJ       0.203100
      7 O4           2.7740     2.2910    -0.9370 oh         1 IDJ      -0.530800
      8 C3           2.9170     1.4190    -3.1880 c3         1 IDJ       0.143100
      9 O3           2.2500     0.5890    -4.1400 oh         1 IDJ      -0.574800
     10 C2           4.3260     0.8750    -2.9340 c3         1 IDJ       0.185100
     11 O2           5.0120     1.7350    -2.0200 oh         1 IDJ      -0.525800
     12 C1           4.2250    -0.5300    -2.3350 c3         1 IDJ       0.119800
     13 H2           1.6020    -0.6560    -2.0120 h1         1 IDJ       0.015700
     14 H3           3.4410    -1.3850    -0.6640 hn         1 IDJ       0.248800
     15 H5           1.1220     1.7610    -2.0570 h1         1 IDJ       0.010700
     16 H6           2.2400     3.0570    -0.8050 ho         1 IDJ       0.358000
     17 H7           2.9850     2.4310    -3.5670 h1         1 IDJ      -0.014300
     18 H8           2.0190     1.1020    -4.8970 ho         1 IDJ       0.370000
     19 H9           4.8680     0.8290    -3.8700 h1         1 IDJ      -0.029300
     20 H10          5.8540     1.9650    -2.3770 ho         1 IDJ       0.349000
     21 H11          5.2200    -0.9100    -2.1380 h1         1 IDJ      -0.005300
     22 H12          3.7160    -1.1830    -3.0340 h1         1 IDJ      -0.005300
@<TRIPOS>BOND
     1     1     2 1   
     2     2     3 1   
     3     2     4 1   
     4     4     5 1   
     5     4     6 1   
     6     4    13 1   
     7     5    12 1   
     8     5    14 1   
     9     6     7 1   
    10     6     8 1   
    11     6    15 1   
    12     7    16 1   
    13     8     9 1   
    14     8    10 1   
    15     8    17 1   
    16     9    18 1   
    17    10    11 1   
    18    10    12 1   
    19    10    19 1   
    20    11    20 1   
    21    12    21 1   
    22    12    22 1   
@<TRIPOS>SUBSTRUCTURE
     1 IDJ         1 TEMP              0 ****  ****    0 ROOT
