@<TRIPOS>MOLECULE
IDK
   51    55     1     0     0
SMALL
bcc


@<TRIPOS>ATOM
      1 C8           0.0000     0.0000     0.0000 cp         1 IDK      -0.017000
      2 C5           1.3830    -0.0010     2.4040 ca         1 IDK      -0.150000
      3 C6           0.0010     0.0000     2.4040 ca         1 IDK      -0.072000
      4 N1          -2.8530     0.0290    -6.1370 ns         1 IDK      -0.005400
      5 C2           4.5990    -3.7180     2.5090 cx         1 IDK      -0.093700
      6 N3          -4.1570     0.0250    -2.8060 na         1 IDK       0.415900
      7 C4           2.0820     0.0000     1.2030 ca         1 IDK       0.056600
      8 O2           3.7250    -0.7760     3.5010 o          1 IDK      -0.579300
      9 S            4.3040    -1.0130     2.2260 s6         1 IDK       0.951900
     10 O1           5.6730    -0.7230     1.9770 o          1 IDK      -0.579300
     11 C3           3.8890    -2.6800     1.6380 c3         1 IDK       0.028400
     12 C1           5.6400    -4.6140     1.8330 cx         1 IDK      -0.069900
     13 C            4.2850    -5.1920     2.2480 cx         1 IDK      -0.069900
     14 N            3.4800    -0.0000     1.2080 nu         1 IDK      -0.404500
     15 C9           1.3930     0.0000     0.0000 ca         1 IDK      -0.140000
     16 C7          -0.6930     0.0000     1.2090 ca         1 IDK      -0.118000
     17 C10         -0.7430     0.0070    -1.2830 cp         1 IDK       0.016000
     18 C20         -2.1310     0.0120    -1.2760 ca         1 IDK      -0.123000
     19 C19         -2.8240     0.0190    -2.4820 ca         1 IDK      -0.166200
     20 C13         -2.1100     0.0180    -3.6960 ca         1 IDK      -0.272900
     21 C12         -0.7100     0.0130    -3.6820 ca         1 IDK      -0.016000
     22 C11         -0.0410     0.0060    -2.4950 ca         1 IDK      -0.149000
     23 N2          -4.2910     0.0250    -4.1990 nc         1 IDK      -0.612100
     24 C14         -3.1120     0.0270    -4.7620 cd         1 IDK       0.309500
     25 C15         -3.8760     0.0350    -7.0150 c          1 IDK       0.581100
     26 O           -5.0200     0.0400    -6.6120 o          1 IDK      -0.582100
     27 C16         -3.5980     0.0380    -8.4970 cx         1 IDK      -0.218700
     28 C18         -4.8010     0.0440    -9.4410 cx         1 IDK      -0.049900
     29 C17         -3.9570    -1.2230    -9.2840 cx         1 IDK      -0.049900
     30 H1           1.9220    -0.0000     3.3440 ha         1 IDK       0.173000
     31 H2          -0.5390     0.0000     3.3420 ha         1 IDK       0.106000
     32 H3           4.8120    -3.4760     3.5430 hc         1 IDK       0.072700
     33 H4          -4.9140     0.0240    -2.1510 hn         1 IDK       0.155700
     34 H5           4.2110    -2.7900     0.6100 h1         1 IDK       0.070200
     35 H6           2.8180    -2.8280     1.6990 h1         1 IDK       0.070200
     36 H7           5.7740    -4.4550     0.7700 hc         1 IDK       0.047700
     37 H8           6.4810    -4.9030     2.4520 hc         1 IDK       0.047700
     38 H9           4.2990    -5.8350     3.1200 hc         1 IDK       0.047700
     39 H10          3.5920    -5.3860     1.4380 hc         1 IDK       0.047700
     40 H11          3.9800     0.5270     0.5200 hn         1 IDK       0.347800
     41 H12          1.9360     0.0000    -0.9370 ha         1 IDK       0.116000
     42 H13         -1.7760     0.0010     1.2120 ha         1 IDK       0.112000
     43 H14         -2.6670     0.1310    -0.3420 ha         1 IDK       0.117000
     44 H15         -0.1590     0.0120    -4.6150 ha         1 IDK       0.094000
     45 H16          1.0420     0.0010    -2.4890 ha         1 IDK       0.113000
     46 H18         -2.7300     0.5710    -8.8650 hc         1 IDK       0.060700
     47 H19         -4.6640     0.5850   -10.3690 hc         1 IDK       0.052700
     48 H20         -5.7720     0.0210    -8.9610 hc         1 IDK       0.052700
     49 H21         -3.3040    -1.4560   -10.1170 hc         1 IDK       0.052700
     50 H22         -4.4120    -2.0200    -8.7090 hc         1 IDK       0.052700
     51 H23         -1.9090     0.0570    -6.4690 hn         1 IDK       0.168500
@<TRIPOS>BOND
     1     1    15 ar  
     2     1    16 ar  
     3     1    17 1   
     4     2     3 ar  
     5     2     7 ar  
     6     2    30 1   
     7     3    16 ar  
     8     3    31 1   
     9     4    24 1   
    10     4    25 1   
    11     4    51 1   
    12     5    11 1   
    13     5    12 1   
    14     5    13 1   
    15     5    32 1   
    16     6    19 1   
    17     6    23 1   
    18     6    33 1   
    19     7    14 1   
    20     7    15 ar  
    21     8     9 2   
    22     9    10 2   
    23     9    11 1   
    24     9    14 1   
    25    11    34 1   
    26    11    35 1   
    27    12    13 1   
    28    12    36 1   
    29    12    37 1   
    30    13    38 1   
    31    13    39 1   
    32    14    40 1   
    33    15    41 1   
    34    16    42 1   
    35    17    18 ar  
    36    17    22 ar  
    37    18    19 ar  
    38    18    43 1   
    39    19    20 ar  
    40    20    21 ar  
    41    20    24 1   
    42    21    22 ar  
    43    21    44 1   
    44    22    45 1   
    45    23    24 2   
    46    25    26 2   
    47    25    27 1   
    48    27    28 1   
    49    27    29 1   
    50    27    46 1   
    51    28    29 1   
    52    28    47 1   
    53    28    48 1   
    54    29    49 1   
    55    29    50 1   
@<TRIPOS>SUBSTRUCTURE
     1 IDK         1 TEMP              0 ****  ****    0 ROOT
