@<TRIPOS>MOLECULE
molecule
   51    55     1     0     0
SMALL
bcc


@<TRIPOS>ATOM
      1 C8           0.0000     0.0000     0.0000 cp         1 IDK      -0.023000
      2 C5           1.3830    -0.0010     2.4040 ca         1 IDK      -0.156000
      3 C6           0.0010     0.0000     2.4040 ca         1 IDK      -0.106000
      4 N1          -2.8530     0.0290    -6.1370 ns         1 IDK      -0.457400
      5 C2           4.5990    -3.7180     2.5090 cx         1 IDK      -0.132700
      6 N3          -4.1570     0.0250    -2.8060 na         1 IDK      -0.052100
      7 C4           2.0820     0.0000     1.2030 ca         1 IDK       0.131600
      8 O2           3.7250    -0.7760     3.5010 o          1 IDK      -0.623300
      9 S            4.3040    -1.0130     2.2260 s6         1 IDK       1.327900
     10 O1           5.6730    -0.7230     1.9770 o          1 IDK      -0.623300
     11 C3           3.8890    -2.6800     1.6380 c3         1 IDK      -0.186600
     12 C1           5.6400    -4.6140     1.8330 cx         1 IDK      -0.121400
     13 C            4.2850    -5.1920     2.2480 cx         1 IDK      -0.121400
     14 N            3.4800    -0.0000     1.2080 nu         1 IDK      -0.763500
     15 C9           1.3930     0.0000     0.0000 ca         1 IDK      -0.145000
     16 C7          -0.6930     0.0000     1.2090 ca         1 IDK      -0.130000
     17 C10         -0.7430     0.0070    -1.2830 cp         1 IDK       0.012000
     18 C20         -2.1310     0.0120    -1.2760 ca         1 IDK      -0.153000
     19 C19         -2.8240     0.0190    -2.4820 ca         1 IDK      -0.002200
     20 C13         -2.1100     0.0180    -3.6960 ca         1 IDK      -0.262900
     21 C12         -0.7100     0.0130    -3.6820 ca         1 IDK      -0.054000
     22 C11         -0.0410     0.0060    -2.4950 ca         1 IDK      -0.166000
     23 N2          -4.2910     0.0250    -4.1990 nc         1 IDK      -0.483100
     24 C14         -3.1120     0.0270    -4.7620 cd         1 IDK       0.433500
     25 C15         -3.8760     0.0350    -7.0150 c          1 IDK       0.684100
     26 O           -5.0200     0.0400    -6.6120 o          1 IDK      -0.549100
     27 C16         -3.5980     0.0380    -8.4970 cx         1 IDK      -0.238700
     28 C18         -4.8010     0.0440    -9.4410 cx         1 IDK      -0.107400
     29 C17         -3.9570    -1.2230    -9.2840 cx         1 IDK      -0.107400
     30 H1           1.9220    -0.0000     3.3440 ha         1 IDK       0.187000
     31 H2          -0.5390     0.0000     3.3420 ha         1 IDK       0.140000
     32 H3           4.8120    -3.4760     3.5430 hc         1 IDK       0.093700
     33 H4          -4.9140     0.0240    -2.1510 hn         1 IDK       0.337700
     34 H5           4.2110    -2.7900     0.6100 h1         1 IDK       0.101700
     35 H6           2.8180    -2.8280     1.6990 h1         1 IDK       0.101700
     36 H7           5.7740    -4.4550     0.7700 hc         1 IDK       0.078950
     37 H8           6.4810    -4.9030     2.4520 hc         1 IDK       0.078950
     38 H9           4.2990    -5.8350     3.1200 hc         1 IDK       0.078950
     39 H10          3.5920    -5.3860     1.4380 hc         1 IDK       0.078950
     40 H11          3.9800     0.5270     0.5200 hn         1 IDK       0.463800
     41 H12          1.9360     0.0000    -0.9370 ha         1 IDK       0.137000
     42 H13         -1.7760     0.0010     1.2120 ha         1 IDK       0.135000
     43 H14         -2.6670     0.1310    -0.3420 ha         1 IDK       0.138000
     44 H15         -0.1590     0.0120    -4.6150 ha         1 IDK       0.125000
     45 H16          1.0420     0.0010    -2.4890 ha         1 IDK       0.133000
     46 H18         -2.7300     0.5710    -8.8650 hc         1 IDK       0.087700
     47 H19         -4.6640     0.5850   -10.3690 hc         1 IDK       0.085950
     48 H20         -5.7720     0.0210    -8.9610 hc         1 IDK       0.085950
     49 H21         -3.3040    -1.4560   -10.1170 hc         1 IDK       0.085950
     50 H22         -4.4120    -2.0200    -8.7090 hc         1 IDK       0.085950
     51 H23         -1.9090     0.0570    -6.4690 hn         1 IDK       0.334500
@<TRIPOS>BOND
     1     8     9 2
     2    29    28 1
     3    29    27 1
     4    10     9 2
     5     9    11 1
     6     9    14 1
     7    28    27 1
     8    27    25 1
     9    11     5 1
    10    14     7 1
    11    26    25 2
    12    25     4 1
    13     5    13 1
    14     5    12 1
    15    15     7 ar
    16    15     1 ar
    17    21    22 ar
    18    21    20 ar
    19     7     2 ar
    20    22    17 ar
    21     4    24 1
    22    24    20 1
    23    24    23 2
    24    20    19 ar
    25    17     1 1
    26    17    18 ar
    27     1    16 ar
    28     2     3 ar
    29    13    12 1
    30    23     6 1
    31    19    18 ar
    32    19     6 1
    33    16     3 ar
    34     2    30 1
    35     3    31 1
    36     5    32 1
    37     6    33 1
    38    11    34 1
    39    11    35 1
    40    12    36 1
    41    12    37 1
    42    13    38 1
    43    13    39 1
    44    14    40 1
    45    15    41 1
    46    16    42 1
    47    18    43 1
    48    21    44 1
    49    22    45 1
    50    27    46 1
    51    28    47 1
    52    28    48 1
    53    29    49 1
    54    29    50 1
    55     4    51 1
@<TRIPOS>SUBSTRUCTURE
     1 IDK         1 TEMP              0 ****  ****    0 ROOT
