@<TRIPOS>MOLECULE
IDL
   20    21     1     0     0
SMALL
bcc


@<TRIPOS>ATOM
      1 C           0.1600   -0.0790   -0.0420 cc        1 IDL     -0.065300
      2 N1          1.4990   -0.3400   -0.0480 nd        1 IDL     -0.311600
      3 C2         -1.6410    0.3580    1.5600 cc        1 IDL     -0.031300
      4 N2         -0.3200    0.0680    1.3090 na        1 IDL      0.019700
      5 O2         -1.1090    1.2200    4.3320 o         1 IDL     -0.835800
      6 C3         -2.5250    0.4810    0.5110 cd        1 IDL     -0.228000
      7 O3          0.9440    1.9860    4.7560 o         1 IDL     -0.835800
      8 C4         -2.0870    0.3270   -0.8360 cd        1 IDL     -0.127000
      9 C5         -0.7770    0.0580   -1.1190 cc        1 IDL     -0.120000
     10 C7          0.7790   -0.1230    2.1520 cc        1 IDL     -0.083300
     11 C8          1.8760   -0.3650    1.2840 cd        1 IDL     -0.040400
     12 C17         0.7610   -0.1300    3.6230 c3        1 IDL     -0.149200
     13 C18         0.1540    1.1340    4.2720 c         1 IDL      0.917600
     14 H2         -1.9070    0.5130    2.6350 h4        1 IDL      0.243000
     15 H3         -3.5760    0.7140    0.7180 ha        1 IDL      0.135000
     16 H4         -2.8240    0.4360   -1.6440 ha        1 IDL      0.116000
     17 H5         -0.4000   -0.0560   -2.1440 ha        1 IDL      0.138000
     18 H8          2.9090   -0.5400    1.5800 h4        1 IDL      0.165000
     19 H17         1.8180   -0.2370    3.9810 hc        1 IDL      0.047200
     20 H17A        0.1700   -1.0140    3.9830 hc        1 IDL      0.047200
@<TRIPOS>BOND
     1    1    2 2   
     2    1    4 1   
     3    1    9 1   
     4    2   11 1   
     5    3    4 1   
     6    3    6 2   
     7    3   14 1   
     8    4   10 1   
     9    5   13 1   
    10    6    8 1   
    11    6   15 1   
    12    7   13 1   
    13    8    9 2   
    14    8   16 1   
    15    9   17 1   
    16   10   11 2   
    17   10   12 1   
    18   11   18 1   
    19   12   13 1   
    20   12   19 1   
    21   12   20 1   
@<TRIPOS>SUBSTRUCTURE
     1 IDL         1 TEMP              0 ****  ****    0 ROOT
