@<TRIPOS>MOLECULE
molecule
   20    21     1     0     0
SMALL
bcc


@<TRIPOS>ATOM
      1 C            0.0000     0.0000     0.0000 cc         1 IDL      -0.062300
      2 N1           1.3260     0.0000     0.0000 nd         1 IDL      -0.329600
      3 C2          -1.7570     0.0010     1.5960 cc         1 IDL      -0.044300
      4 N2          -0.4240     0.0010     1.3030 na         1 IDL       0.049700
      5 O2           0.9300     2.3310     3.3060 o          1 IDL      -0.837800
      6 C3          -2.6770    -0.0010     0.6100 cd         1 IDL      -0.198000
      7 O3           0.9230     1.6630     5.4120 o          1 IDL      -0.837800
      8 C4          -2.2750     0.0040    -0.7360 cd         1 IDL      -0.153000
      9 C5          -0.9490     0.0050    -1.0410 cc         1 IDL      -0.084000
     10 C7           0.6960     0.0010     2.0890 cc         1 IDL      -0.105300
     11 C8           1.7640     0.0000     1.2610 cd         1 IDL       0.019600
     12 C17          0.7330     0.0010     3.5950 c3         1 IDL      -0.124200
     13 C18          0.8690     1.4170     4.0940 c          1 IDL       0.887600
     14 H2          -2.0780    -0.0030     2.6310 h4         1 IDL       0.164000
     15 H3          -3.7320    -0.0020     0.8580 ha         1 IDL       0.130000
     16 H4          -3.0160     0.0030    -1.5260 ha         1 IDL       0.120000
     17 H5          -0.6260     0.0080    -2.0750 ha         1 IDL       0.138000
     18 H8           2.8030    -0.0020     1.5690 h4         1 IDL       0.178000
     19 H17         -0.1840    -0.4300     3.9790 hc         1 IDL       0.043700
     20 H17A         1.5780    -0.5850     3.9360 hc         1 IDL       0.043700
@<TRIPOS>BOND
     1     1     2 2
     2     1     4 1
     3     1     9 1
     4     2    11 1
     5     3     4 1
     6     3     6 2
     7     4    10 1
     8     5    13 1
     9     6     8 1
    10     7    13 1
    11     8     9 2
    12    10    11 2
    13    10    12 1
    14    12    13 1
    15     3    14 1
    16     6    15 1
    17     8    16 1
    18     9    17 1
    19    11    18 1
    20    12    19 1
    21    12    20 1
@<TRIPOS>SUBSTRUCTURE
     1 IDL         1 TEMP              0 ****  ****    0 ROOT
