@<TRIPOS>MOLECULE
IDM
   18    19     1     0     0
SMALL
bcc


@<TRIPOS>ATOM
      1 N1           0.0000     0.0000     0.0000 nu         1 IDM      -0.394600
      2 C2           1.4660     0.0000     0.0000 c3         1 IDM       0.133800
      3 C3           1.8680     0.0000     1.4830 c3         1 IDM       0.028900
      4 C4A          0.5550     0.0000     2.2330 ca         1 IDM      -0.155300
      5 C4           0.2860    -0.0000     3.5870 ca         1 IDM      -0.056000
      6 C5          -1.0220     0.0000     4.0350 ca         1 IDM      -0.127000
      7 C6          -2.0610     0.0000     3.1230 ca         1 IDM      -0.080000
      8 C7          -1.7960     0.0000     1.7700 ca         1 IDM      -0.111000
      9 C7A         -0.4780     0.0000     1.3110 ca         1 IDM       0.005600
     10 HN1         -0.3340    -0.8140    -0.4770 hn         1 IDM       0.253800
     11 H21          1.8290     0.9030    -0.4750 h1         1 IDM       0.020200
     12 H22          1.8290    -0.9030    -0.4750 h1         1 IDM       0.020200
     13 H31          2.4190    -0.9040     1.7120 hc         1 IDM       0.025700
     14 H32          2.4190     0.9040     1.7120 hc         1 IDM       0.025700
     15 H4           1.1010    -0.0000     4.3000 ha         1 IDM       0.100000
     16 H5          -1.2320     0.0000     5.0970 ha         1 IDM       0.104000
     17 H6          -3.0860     0.0000     3.4730 ha         1 IDM       0.101000
     18 H7          -2.6150     0.0000     1.0610 ha         1 IDM       0.106000
@<TRIPOS>BOND
     1     1     2 1   
     2     1     9 1   
     3     1    10 1   
     4     2     3 1   
     5     2    11 1   
     6     2    12 1   
     7     3     4 1   
     8     3    13 1   
     9     3    14 1   
    10     4     5 ar  
    11     4     9 ar  
    12     5     6 ar  
    13     5    15 1   
    14     6     7 ar  
    15     6    16 1   
    16     7     8 ar  
    17     7    17 1   
    18     8     9 ar  
    19     8    18 1   
@<TRIPOS>SUBSTRUCTURE
     1 IDM         1 TEMP              0 ****  ****    0 ROOT
