@<TRIPOS>MOLECULE
IDN
   50    55     1     0     0
SMALL
bcc


@<TRIPOS>ATOM
      1 C01          0.0000     0.0000     0.0000 c2         1 IDN      -0.082000
      2 C02          1.3920     0.0000     0.0000 c2         1 IDN      -0.135000
      3 C03          2.0690     0.0000     1.1880 c2         1 IDN      -0.093000
      4 C04          1.3280    -0.0110     2.3820 c3         1 IDN      -0.084000
      5 C05         -0.0680    -0.0100     2.3080 c2         1 IDN      -0.086000
      6 N06         -0.6760    -0.0050     1.1420 n2         1 IDN      -0.047000
      7 C07          2.0090    -0.0160     3.6850 c2         1 IDN       0.013000
      8 C08          1.2860    -0.0210     4.8230 c2         1 IDN      -0.138000
      9 C09          1.9630    -0.0250     6.1190 c3         1 IDN       0.364000
     10 O10          3.1750     0.0690     6.1730 o          1 IDN      -0.437000
     11 N11          1.2450    -0.1360     7.2540 n3         1 IDN      -0.049000
     12 C12          1.9090    -0.0220     8.5550 c3         1 IDN      -0.052000
     13 C13         -0.2000    -0.3700     7.1870 c3         1 IDN       0.040000
     14 C14         -0.9220     0.9530     7.1560 c2         1 IDN      -0.204000
     15 C15         -0.3590     2.1700     7.1860 c2         1 IDN      -0.206000
     16 N16         -1.3280     3.1340     7.1430 na         1 IDN       0.307000
     17 C17         -2.5710     2.5450     7.0850 ca         1 IDN      -0.162000
     18 C18         -2.3710     1.1530     7.0850 ca         1 IDN      -0.077000
     19 N19         -0.6880     0.0070    -1.2090 ns         1 IDN       0.144000
     20 C20         -1.0800     4.5780     7.1580 c3         1 IDN      -0.106000
     21 C21         -4.7320     0.8070     6.9800 ca         1 IDN      -0.127000
     22 C22         -4.9350     2.1800     6.9730 ca         1 IDN      -0.085000
     23 C23         -3.8670     3.0470     7.0260 ca         1 IDN      -0.100000
     24 C24         -3.4680     0.2920     7.0380 ca         1 IDN      -0.051000
     25 C25          2.1460     0.0060    -1.3030 c3         1 IDN      -0.043000
     26 C26          1.3650    -0.7920    -2.3470 c3         1 IDN      -0.124000
     27 C27         -0.0750    -0.3560    -2.3500 c2         1 IDN       0.208000
     28 O28         -0.6900    -0.3300    -3.3940 o          1 IDN      -0.388000
     29 H03          3.1530    -0.0000     1.2080 ha         1 IDN       0.128000
     30 H05         -0.6530    -0.0180     3.2200 h4         1 IDN       0.140000
     31 H07          1.5630    -0.8890     3.2240 DU         1 IDN       0.093000
     32 H08          1.7350    -0.8970     5.2750 DU         1 IDN       0.024000
     33 H121         2.5510     0.8500     8.5570 h1         1 IDN       0.051667
     34 H122         1.1620     0.0770     9.3340 h1         1 IDN       0.051667
     35 H123         2.5030    -0.9090     8.7360 h1         1 IDN       0.051667
     36 H131        -0.4350    -0.9290     6.2890 h1         1 IDN       0.065000
     37 H132        -0.5160    -0.9330     8.0570 h1         1 IDN       0.065000
     38 H15          0.7060     2.3620     7.2360 h4         1 IDN       0.149000
     39 H19         -1.6490     0.2840    -1.2300 hn         1 IDN       0.101000
     40 H201        -1.5260     5.0120     8.0450 h1         1 IDN       0.058000
     41 H202        -1.5200     5.0290     6.2760 h1         1 IDN       0.058000
     42 H203        -0.0130     4.7610     7.1630 h1         1 IDN       0.058000
     43 H21         -5.5830     0.1370     6.9390 ha         1 IDN       0.103000
     44 H22         -5.9440     2.5720     6.9270 ha         1 IDN       0.101000
     45 H23         -4.0350     4.1170     7.0200 ha         1 IDN       0.100000
     46 H24         -3.3170    -0.7810     7.0430 ha         1 IDN       0.098000
     47 H251         2.2650     1.0270    -1.6460 hc         1 IDN       0.068000
     48 H252         3.1190    -0.4470    -1.1580 hc         1 IDN       0.068000
     49 H261         1.4200    -1.8470    -2.1070 hc         1 IDN       0.083000
     50 H262         1.7950    -0.6180    -3.3270 hc         1 IDN       0.083000
@<TRIPOS>BOND
     1     1     2 1   
     2     1     6 1   
     3     1    19 1   
     4     2     3 1   
     5     2    25 1   
     6     3     4 1   
     7     3    29 1   
     8     4     5 1   
     9     4     7 1   
    10     4    31 1   
    11     5     6 1   
    12     5    30 1   
    13     7     8 1   
    14     7    31 1   
    15     8     9 1   
    16     8    32 1   
    17     9    10 1   
    18     9    11 1   
    19     9    32 1   
    20    11    12 1   
    21    11    13 1   
    22    12    33 1   
    23    12    34 1   
    24    12    35 1   
    25    13    14 1   
    26    13    36 1   
    27    13    37 1   
    28    14    15 1   
    29    14    18 1   
    30    15    16 1   
    31    15    38 1   
    32    16    17 1   
    33    16    20 1   
    34    17    18 1   
    35    17    23 1   
    36    18    24 1   
    37    19    27 1   
    38    19    39 1   
    39    20    40 1   
    40    20    41 1   
    41    20    42 1   
    42    21    22 1   
    43    21    24 1   
    44    21    43 1   
    45    22    23 1   
    46    22    44 1   
    47    23    45 1   
    48    24    46 1   
    49    25    26 1   
    50    25    47 1   
    51    25    48 1   
    52    26    27 1   
    53    26    49 1   
    54    26    50 1   
    55    27    28 1   
@<TRIPOS>SUBSTRUCTURE
     1 IDN         1 TEMP              0 ****  ****    0 ROOT
