@<TRIPOS>MOLECULE
molecule
   50    53     1     0     0
SMALL
bcc


@<TRIPOS>ATOM
      1 C01          0.0000     0.0000     0.0000 ca         1 IDN       0.567200
      2 C02          1.3920     0.0000     0.0000 ca         1 IDN      -0.245600
      3 C03          2.0690     0.0000     1.1880 ca         1 IDN      -0.043000
      4 C04          1.3280    -0.0110     2.3820 ca         1 IDN      -0.232100
      5 C05         -0.0680    -0.0100     2.3080 ca         1 IDN       0.471200
      6 N06         -0.6760    -0.0050     1.1420 nb         1 IDN      -0.729000
      7 C07          2.0090    -0.0160     3.6850 ce         1 IDN      -0.024200
      8 C08          1.2860    -0.0210     4.8230 cf         1 IDN      -0.252200
      9 C09          1.9630    -0.0250     6.1190 c          1 IDN       0.666300
     10 O10          3.1750     0.0690     6.1730 o          1 IDN      -0.618100
     11 N11          1.2450    -0.1360     7.2540 n          1 IDN      -0.492800
     12 C12          1.9090    -0.0220     8.5550 c3         1 IDN       0.105300
     13 C13         -0.2000    -0.3700     7.1870 c3         1 IDN       0.183200
     14 C14         -0.9220     0.9530     7.1560 cc         1 IDN      -0.204400
     15 C15         -0.3590     2.1700     7.1860 cd         1 IDN      -0.074100
     16 N16         -1.3280     3.1340     7.1430 na         1 IDN      -0.072400
     17 C17         -2.5710     2.5450     7.0850 ca         1 IDN      -0.035200
     18 C18         -2.3710     1.1530     7.0850 ca         1 IDN      -0.097800
     19 N19         -0.6880     0.0070    -1.2090 ns         1 IDN      -0.538400
     20 C20         -1.0800     4.5780     7.1580 c3         1 IDN       0.040600
     21 C21         -4.7320     0.8070     6.9800 ca         1 IDN      -0.153000
     22 C22         -4.9350     2.1800     6.9730 ca         1 IDN      -0.109000
     23 C23         -3.8670     3.0470     7.0260 ca         1 IDN      -0.139000
     24 C24         -3.4680     0.2920     7.0380 ca         1 IDN      -0.084000
     25 C25          2.1460     0.0060    -1.3030 c3         1 IDN      -0.030100
     26 C26          1.3650    -0.7920    -2.3470 c3         1 IDN      -0.154400
     27 C27         -0.0750    -0.3560    -2.3500 c          1 IDN       0.705500
     28 O28         -0.6900    -0.3300    -3.3940 o          1 IDN      -0.616500
     29 H03          3.1530    -0.0000     1.2080 ha         1 IDN       0.148000
     30 H05         -0.6530    -0.0180     3.2200 h4         1 IDN       0.037100
     31 H07          3.0910    -0.0150     3.7300 ha         1 IDN       0.158000
     32 H08          0.2040    -0.0210     4.7770 ha         1 IDN       0.140000
     33 H121         2.5520    -0.8800     8.7090 h1         1 IDN       0.043367
     34 H122         2.5030     0.8840     8.5790 h1         1 IDN       0.043367
     35 H123         1.1620     0.0150     9.3390 h1         1 IDN       0.043367
     36 H131        -0.4350    -0.9290     6.2890 h1         1 IDN       0.058700
     37 H132        -0.5160    -0.9330     8.0570 h1         1 IDN       0.058700
     38 H15          0.7060     2.3620     7.2370 h4         1 IDN       0.174000
     39 H19         -1.6490     0.2840    -1.2300 hn         1 IDN       0.350500
     40 H201        -0.0130     4.7610     7.1600 h1         1 IDN       0.050033
     41 H202        -1.5230     5.0110     8.0470 h1         1 IDN       0.050033
     42 H203        -1.5220     5.0290     6.2780 h1         1 IDN       0.050033
     43 H21         -5.5830     0.1370     6.9390 ha         1 IDN       0.129000
     44 H22         -5.9440     2.5720     6.9270 ha         1 IDN       0.131000
     45 H23         -4.0350     4.1170     7.0200 ha         1 IDN       0.126000
     46 H24         -3.3170    -0.7810     7.0430 ha         1 IDN       0.127000
     47 H251         3.1190    -0.4470    -1.1580 hc         1 IDN       0.061700
     48 H252         2.2650     1.0270    -1.6460 hc         1 IDN       0.061700
     49 H261         1.7950    -0.6180    -3.3270 hc         1 IDN       0.081200
     50 H262         1.4200    -1.8470    -2.1070 hc         1 IDN       0.081200
@<TRIPOS>BOND
     1     1     2 ar
     2     1     6 ar
     3     1    19 1
     4     2     3 ar
     5     2    25 1
     6     3     4 ar
     7     3    29 1
     8     4     5 ar
     9     4     7 1
    10     5     6 ar
    11     5    30 1
    12     7     8 2
    13     7    31 1
    14     8     9 1
    15     8    32 1
    16     9    10 2
    17     9    11 1
    18    11    12 1
    19    11    13 1
    20    12    33 1
    21    12    34 1
    22    12    35 1
    23    13    14 1
    24    13    36 1
    25    13    37 1
    26    14    15 2
    27    14    18 1
    28    15    16 1
    29    15    38 1
    30    16    17 1
    31    16    20 1
    32    17    18 ar
    33    17    23 ar
    34    18    24 ar
    35    19    27 1
    36    19    39 1
    37    20    40 1
    38    20    41 1
    39    20    42 1
    40    21    22 ar
    41    21    24 ar
    42    21    43 1
    43    22    23 ar
    44    22    44 1
    45    23    45 1
    46    24    46 1
    47    25    26 1
    48    25    47 1
    49    25    48 1
    50    26    27 1
    51    26    49 1
    52    26    50 1
    53    27    28 2
@<TRIPOS>SUBSTRUCTURE
     1 IDN         1 TEMP              0 ****  ****    0 ROOT
