@<TRIPOS>MOLECULE
molecule
   38    40     1     0     0
SMALL
bcc


@<TRIPOS>ATOM
      1 PB           0.0000     0.0000     0.0000 p5         1 IDP       1.188900
      2 O1B          1.4790     0.0000     0.0000 o          1 IDP      -0.808500
      3 O2B         -0.5370     0.0000     1.5180 o          1 IDP      -0.808500
      4 O3B         -0.5360    -1.3140    -0.7590 o          1 IDP      -0.808500
      5 PA           0.0350     1.2500    -2.2620 p5         1 IDP       1.250800
      6 O1A         -0.4590     0.0230    -2.9260 o          1 IDP      -0.801000
      7 O2A          1.6440     1.2290    -2.2250 o          1 IDP      -0.801000
      8 O3A         -0.5370     1.3150    -0.7600 os         1 IDP      -0.643800
      9 O5'         -0.4640     2.5420    -3.0840 os         1 IDP      -0.534200
     10 C5'          0.0720     2.4270    -4.4020 c3         1 IDP       0.170400
     11 C4'         -0.3680     3.6290    -5.2390 c3         1 IDP       0.128100
     12 O4'          0.1360     4.8550    -4.6610 os         1 IDP      -0.369600
     13 C3'          0.2620     3.5720    -6.6480 c3         1 IDP       0.086100
     14 O3'         -0.6690     3.0380    -7.5910 oh         1 IDP      -0.586800
     15 C2'          0.5810     5.0470    -6.9790 c3         1 IDP       0.076100
     16 O2'         -0.1400     5.4670    -8.1390 oh         1 IDP      -0.578800
     17 C1'          0.1060     5.8240    -5.7320 c3         1 IDP       0.243800
     18 N9           1.0160     6.9340    -5.4450 na         1 IDP      -0.187900
     19 C8           2.1200     6.8840    -4.6470 cc         1 IDP       0.435400
     20 N7           2.6940     8.0530    -4.6170 nd         1 IDP      -0.660000
     21 C5           1.9950     8.9150    -5.3910 cd         1 IDP       0.171800
     22 C6           2.1430    10.2840    -5.7290 c          1 IDP       0.635000
     23 O6           3.0680    10.9430    -5.2860 o          1 IDP      -0.685500
     24 N1           1.2300    10.8390    -6.5560 ns         1 IDP      -0.479400
     25 C2           0.2030    10.0960    -7.0440 cd         1 IDP       0.358800
     26 N3           0.0550     8.8370    -6.7420 nc         1 IDP      -0.617100
     27 C4           0.9190     8.2080    -5.9330 cc         1 IDP       0.039800
     28 H5'1         1.1530     2.3990    -4.3500 h1         1 IDP       0.059200
     29 H5'2        -0.2920     1.5160    -4.8610 h1         1 IDP       0.059200
     30 H4'         -1.4480     3.6680    -5.3130 h1         1 IDP       0.068700
     31 H3'          1.1720     2.9850    -6.6310 h1         1 IDP       0.058700
     32 HO3'        -0.2650     2.3290    -8.0640 ho         1 IDP       0.389000
     33 H2'          1.6470     5.1780    -7.1210 h1         1 IDP       0.045700
     34 HO2'         0.4500     5.5270    -8.8720 ho         1 IDP       0.384000
     35 H1'         -0.9040     6.1870    -5.8790 h2         1 IDP       0.090700
     36 H8           2.4660     6.0060    -4.1160 h5         1 IDP       0.098100
     37 HN1          1.3110    11.8040    -6.8110 hn         1 IDP       0.304500
     38 H2          -0.5150    10.5650    -7.7050 h5         1 IDP       0.026800
@<TRIPOS>BOND
     1     1     2 1
     2     1     3 1
     3     1     4 1
     4     1     8 1
     5     5     6 1
     6     5     7 1
     7     5     8 1
     8     5     9 1
     9     9    10 1
    10    10    11 1
    11    10    28 1
    12    10    29 1
    13    11    12 1
    14    11    13 1
    15    11    30 1
    16    12    17 1
    17    13    14 1
    18    13    15 1
    19    13    31 1
    20    14    32 1
    21    15    16 1
    22    15    17 1
    23    15    33 1
    24    16    34 1
    25    17    18 1
    26    17    35 1
    27    18    19 1
    28    18    27 1
    29    19    20 2
    30    19    36 1
    31    20    21 1
    32    21    22 1
    33    21    27 2
    34    22    23 2
    35    22    24 1
    36    24    25 1
    37    24    37 1
    38    25    26 2
    39    25    38 1
    40    26    27 1
@<TRIPOS>SUBSTRUCTURE
     1 IDP         1 TEMP              0 ****  ****    0 ROOT
