@<TRIPOS>MOLECULE
molecule
   53    56     1     0     0
SMALL
bcc


@<TRIPOS>ATOM
      1 N4           0.0000     0.0000     0.0000 nz         1 IDQ      -0.810600
      2 C21          1.4690     0.0000     0.0000 c3         1 IDQ       0.159100
      3 C18          1.9710     0.0000     1.4210 ca         1 IDQ      -0.192300
      4 C17          2.1950     1.1970     2.0750 ca         1 IDQ      -0.100500
      5 C16          2.6560     1.1960     3.3790 ca         1 IDQ      -0.099500
      6 C20          2.2020    -1.1970     2.0720 ca         1 IDQ      -0.100500
      7 C19          2.6620    -1.1980     3.3760 ca         1 IDQ      -0.099500
      8 C15          2.8910    -0.0010     4.0280 ca         1 IDQ      -0.063300
      9 C14          3.3940    -0.0010     5.4490 c3         1 IDQ       0.081600
     10 N2           2.2620     0.1440     6.3670 na         1 IDQ      -0.127300
     11 C9           1.4800    -0.8610     6.8500 cc         1 IDQ       0.388800
     12 C10          1.6470    -2.3220     6.5210 c3         1 IDQ      -0.081700
     13 C11          2.5950    -2.9700     7.5330 c3         1 IDQ      -0.082400
     14 C12          2.7630    -4.4520     7.1980 c3         1 IDQ      -0.085400
     15 C13          3.7100    -5.0990     8.2100 c3         1 IDQ      -0.091100
     16 N1           0.5690    -0.3710     7.6400 nd         1 IDQ      -0.551100
     17 C7           0.7080     0.9750     7.7130 ca         1 IDQ      -0.039900
     18 C6           0.0200     2.0010     8.3990 ca         1 IDQ       0.768200
     19 N3          -1.0540     1.6680     9.2060 nv         1 IDQ      -1.075500
     20 N            0.3720     3.2620     8.2920 nb         1 IDQ      -0.715000
     21 C            1.4010     3.6670     7.5310 ca         1 IDQ       0.442600
     22 C8           1.7970     1.3140     6.9030 ca         1 IDQ      -0.092200
     23 C1           2.1600     2.7210     6.7990 ca         1 IDQ      -0.136300
     24 C3           3.2290     3.1510     6.0080 ca         1 IDQ      -0.148000
     25 C5           3.5340     4.4790     5.9470 ca         1 IDQ      -0.124000
     26 C4           2.7920     5.4110     6.6650 ca         1 IDQ      -0.121000
     27 C2           1.7430     5.0240     7.4440 ca         1 IDQ      -0.150300
     28 H1          -0.3340     0.8230     0.4620 hn         1 IDQ       0.456133
     29 H2          -0.3340    -0.8120     0.4810 hn         1 IDQ       0.456133
     30 H4           1.8300    -0.8850    -0.5110 hx         1 IDQ       0.112700
     31 H5           1.8300     0.8850    -0.5110 hx         1 IDQ       0.112700
     32 H6           2.0500     2.1350     1.5520 ha         1 IDQ       0.140000
     33 H7           2.8720     2.1340     3.8770 ha         1 IDQ       0.167500
     34 H8           2.0490    -2.1350     1.5520 ha         1 IDQ       0.140000
     35 H9           2.9020    -2.1340     3.8640 ha         1 IDQ       0.167500
     36 H10          4.0800     0.8250     5.5900 h1         1 IDQ       0.087700
     37 H11          3.9060    -0.9340     5.6510 h1         1 IDQ       0.087700
     38 H12          0.6820    -2.8140     6.5630 hc         1 IDQ       0.056700
     39 H13          2.0590    -2.4230     5.5240 hc         1 IDQ       0.056700
     40 H14          3.5590    -2.4780     7.4900 hc         1 IDQ       0.056200
     41 H15          2.1820    -2.8690     8.5290 hc         1 IDQ       0.056200
     42 H16          1.7980    -4.9440     7.2400 hc         1 IDQ       0.038200
     43 H17          3.1760    -4.5530     6.2010 hc         1 IDQ       0.038200
     44 H18          3.3120    -4.9710     9.2100 hc         1 IDQ       0.040033
     45 H19          3.8050    -6.1560     7.9920 hc         1 IDQ       0.040033
     46 H20          4.6840    -4.6280     8.1460 hc         1 IDQ       0.040033
     47 H21         -0.9090     1.4710    10.1770 hn         1 IDQ       0.445300
     48 H22         -1.9800     1.6550     8.8270 hn         1 IDQ       0.445300
     49 H23          3.8130     2.4320     5.4460 ha         1 IDQ       0.115000
     50 H24          4.3630     4.8120     5.3350 ha         1 IDQ       0.132000
     51 H25          3.0510     6.4610     6.6020 ha         1 IDQ       0.142000
     52 H26          1.1750     5.7630     7.9970 ha         1 IDQ       0.160000
     53 H43         -0.3340    -0.0140    -0.9430 hn         1 IDQ       0.456133
@<TRIPOS>BOND
     1     1     2 1
     2     2     3 1
     3     3     6 ar
     4     3     4 ar
     5     6     7 ar
     6    19    18 1
     7     4     5 ar
     8     7     8 ar
     9    20    18 ar
    10    20    21 ar
    11    18    17 ar
    12    27    21 ar
    13    27    26 ar
    14    21    23 ar
    15    17    16 1
    16    17    22 ar
    17    26    25 ar
    18     5     8 ar
    19     8     9 1
    20    16    11 2
    21    23    22 ar
    22    23    24 ar
    23    22    10 1
    24    25    24 ar
    25    11    10 1
    26    11    12 1
    27    10     9 1
    28    12    13 1
    29    13    14 1
    30    14    15 1
    31     1    28 1
    32     1    29 1
    33     2    30 1
    34     2    31 1
    35     4    32 1
    36     5    33 1
    37     6    34 1
    38     7    35 1
    39     9    36 1
    40     9    37 1
    41    12    38 1
    42    12    39 1
    43    13    40 1
    44    13    41 1
    45    14    42 1
    46    14    43 1
    47    15    44 1
    48    15    45 1
    49    15    46 1
    50    19    47 1
    51    19    48 1
    52    24    49 1
    53    25    50 1
    54    26    51 1
    55    27    52 1
    56    53     1 1
@<TRIPOS>SUBSTRUCTURE
     1 IDQ         1 TEMP              0 ****  ****    0 ROOT
