@<TRIPOS>MOLECULE
IDV
   49    52     1     0     0
SMALL
bcc


@<TRIPOS>ATOM
      1 C4           0.0000     0.0000     0.0000 ca         1 IDV      -0.074000
      2 C5           1.3810     0.0000     0.0000 ca         1 IDV      -0.115000
      3 C6           2.0780     0.0000     1.2070 cp         1 IDV      -0.019000
      4 C7           1.3780     0.0000     2.4110 ca         1 IDV      -0.128000
      5 C8           3.5620    -0.0010     1.2090 cp         1 IDV       0.015000
      6 C9           4.2560    -0.0070     2.4260 ca         1 IDV      -0.149000
      7 C10          5.6180    -0.0080     2.4430 ca         1 IDV      -0.016000
      8 C11          6.3330    -0.0040     1.2400 ca         1 IDV      -0.272900
      9 C12          7.7580    -0.0040     0.9110 cc         1 IDV       0.309500
     10 N3           7.8650     0.0020    -0.3920 nd         1 IDV      -0.613100
     11 C13         10.0910    -0.0080     1.3820 c          1 IDV       0.582100
     12 C14         11.2310    -0.0130     2.3670 cx         1 IDV      -0.220700
     13 C15         12.6530    -0.0110     1.8020 cx         1 IDV      -0.048900
     14 N4           6.5940     0.0050    -0.9760 na         1 IDV       0.417900
     15 O2          -2.8530     0.8460     2.7090 o          1 IDV      -0.584300
     16 S           -1.9890     1.0370     3.8200 s6         1 IDV       1.126800
     17 O1          -2.4120     0.8820     5.1680 o          1 IDV      -0.584300
     18 N           -1.3950     2.5780     3.6900 n3         1 IDV      -0.540500
     19 C1          -1.4700     3.2860     2.4100 c3         1 IDV       0.272100
     20 C           -0.7950     3.2320     4.8550 c3         1 IDV       0.272100
     21 C2          -0.0090     0.0000     2.4020 ca         1 IDV       0.060600
     22 C3          -0.6950     0.0060     1.1940 ca         1 IDV      -0.151000
     23 C18          4.2530    -0.0020     0.0070 ca         1 IDV      -0.122000
     24 C17          5.6430     0.0010     0.0120 ca         1 IDV      -0.167200
     25 O           10.3180    -0.0040     0.1910 o          1 IDV      -0.582100
     26 C16         12.0910     1.2500     2.4590 cx         1 IDV      -0.048900
     27 H1          -0.5400     0.0020    -0.9390 ha         1 IDV       0.106000
     28 H2           1.9220    -0.0030    -0.9380 ha         1 IDV       0.112000
     29 H3          -0.4770    -0.6540     4.3260 hn         1 IDV       0.348800
     30 H4           1.9150     0.0000     3.3520 ha         1 IDV       0.117000
     31 H5           8.6300    -0.0200     2.8090 hn         1 IDV       0.168500
     32 H6           3.7060    -0.0100     3.3590 ha         1 IDV       0.114000
     33 H7           6.1480    -0.0130     3.3880 ha         1 IDV       0.094000
     34 H10         11.1150    -0.5510     3.3000 hc         1 IDV       0.061700
     35 H11         12.7270     0.0170     0.7210 hc         1 IDV       0.052450
     36 H12         13.3890    -0.5540     2.3840 hc         1 IDV       0.052450
     37 H13          6.4080     0.0090    -1.9590 hn         1 IDV       0.155700
     38 H14         -1.8490     4.2880     2.5730 h1         1 IDV       0.005033
     39 H15         -2.1340     2.7530     1.7410 h1         1 IDV       0.005033
     40 H16         -0.4820     3.3420     1.9690 h1         1 IDV       0.005033
     41 H17         -1.5650     3.7490     5.4160 h1         1 IDV       0.005033
     42 H18         -0.0490     3.9440     4.5250 h1         1 IDV       0.005033
     43 H19         -0.3280     2.4860     5.4870 h1         1 IDV       0.005033
     44 H20         -1.7790     0.0060     1.1880 ha         1 IDV       0.164000
     45 H21          3.7150     0.1050    -0.9280 ha         1 IDV       0.116000
     46 H22         11.8200     2.0500     1.7800 hc         1 IDV       0.052450
     47 H23         12.4820     1.4780     3.4430 hc         1 IDV       0.052450
     48 N1          -0.7150     0.0000     3.6070 nu         1 IDV      -0.413500
     49 N2           8.8180    -0.0090     1.8260 ns         1 IDV      -0.005400
@<TRIPOS>BOND
     1     1     2 ar  
     2     1    22 ar  
     3     1    27 1   
     4     2     3 ar  
     5     2    28 1   
     6     3     4 ar  
     7     3     5 1   
     8     4    21 ar  
     9     4    30 1   
    10     5     6 ar  
    11     5    23 ar  
    12     6     7 ar  
    13     6    32 1   
    14     7     8 ar  
    15     7    33 1   
    16     8     9 1   
    17     8    24 ar  
    18     9    10 2   
    19     9    49 1   
    20    10    14 1   
    21    11    12 1   
    22    11    25 2   
    23    11    49 1   
    24    12    13 1   
    25    12    26 1   
    26    12    34 1   
    27    13    26 1   
    28    13    35 1   
    29    13    36 1   
    30    14    24 1   
    31    14    37 1   
    32    15    16 2   
    33    16    17 2   
    34    16    18 1   
    35    16    48 1   
    36    18    19 1   
    37    18    20 1   
    38    19    38 1   
    39    19    39 1   
    40    19    40 1   
    41    20    41 1   
    42    20    42 1   
    43    20    43 1   
    44    21    22 ar  
    45    21    48 1   
    46    22    44 1   
    47    23    24 ar  
    48    23    45 1   
    49    26    46 1   
    50    26    47 1   
    51    29    48 1   
    52    31    49 1   
@<TRIPOS>SUBSTRUCTURE
     1 IDV         1 TEMP              0 ****  ****    0 ROOT
