@<TRIPOS>MOLECULE
IDZ
   28    31     1     0     0
SMALL
bcc


@<TRIPOS>ATOM
      1 C1         -0.0760    0.0040   -0.0420 ca        1 IDZ     -0.146000
      2 C2          1.3090    0.0020   -0.0930 ca        1 IDZ     -0.094000
      3 C3          2.0950   -0.0020    1.0760 ca        1 IDZ     -0.162000
      4 C4          1.5220   -0.0030    2.3400 ca        1 IDZ     -0.046000
      5 C5          0.1310   -0.0000    2.4340 ca        1 IDZ     -0.173900
      6 C6         -0.8580    0.0000    3.5070 cc        1 IDZ      0.315600
      7 C7         -0.5740   -0.0020    4.9320 cc        1 IDZ      0.416500
      8 N8         -1.6090    0.0050    5.8990 na        1 IDZ     -0.266300
      9 C9         -0.9850    0.0010    7.1460 ca        1 IDZ     -0.070200
     10 C10        -1.4810    0.0040    8.4560 ca        1 IDZ     -0.135000
     11 C11        -0.5550   -0.0030    9.4870 ca        1 IDZ     -0.112000
     12 C12         0.8310   -0.0120    9.2400 ca        1 IDZ     -0.154000
     13 C13         1.3450   -0.0150    7.9530 ca        1 IDZ     -0.070000
     14 C14         0.4440   -0.0090    6.8770 ca        1 IDZ      0.066400
     15 N16        -2.0080    0.0100    1.6520 na        1 IDZ     -0.009100
     16 C17        -0.6690    0.0030    1.2290 ca        1 IDZ     -0.056200
     17 NAL         0.6620   -0.0100    5.4880 nd        1 IDZ     -0.561100
     18 NAI        -2.1150    0.0030    2.9790 nd        1 IDZ     -0.512100
     19 H1         -0.6850    0.0080   -0.9560 ha        1 IDZ      0.139000
     20 H2          1.8120    0.0020   -1.0720 ha        1 IDZ      0.134000
     21 H3          3.1910   -0.0040    0.9770 ha        1 IDZ      0.137000
     22 H4          2.1440   -0.0040    3.2480 ha        1 IDZ      0.167000
     23 H8         -2.5780    0.0120    5.7200 hn        1 IDZ      0.316700
     24 H10        -2.5600    0.0110    8.6560 ha        1 IDZ      0.136000
     25 H11        -0.9080   -0.0000   10.5300 ha        1 IDZ      0.132000
     26 H12         1.5210   -0.0170   10.0970 ha        1 IDZ      0.132000
     27 H13         2.4290   -0.0230    7.7690 ha        1 IDZ      0.146000
     28 H16        -2.8200   -0.0100    1.0820 hn        1 IDZ      0.328700
@<TRIPOS>BOND
     1    1    2 ar  
     2    1   16 ar  
     3    1   19 1   
     4    2    3 ar  
     5    2   20 1   
     6    3    4 ar  
     7    3   21 1   
     8    4    5 ar  
     9    4   22 1   
    10    5    6 1   
    11    5   16 ar  
    12    6    7 1   
    13    6   18 2   
    14    7    8 1   
    15    7   17 2   
    16    8    9 1   
    17    8   23 1   
    18    9   10 ar  
    19    9   14 ar  
    20   10   11 ar  
    21   10   24 1   
    22   11   12 ar  
    23   11   25 1   
    24   12   13 ar  
    25   12   26 1   
    26   13   14 ar  
    27   13   27 1   
    28   14   17 1   
    29   15   16 1   
    30   15   18 1   
    31   15   28 1   
@<TRIPOS>SUBSTRUCTURE
     1 IDZ         1 TEMP              0 ****  ****    0 ROOT
