@<TRIPOS>MOLECULE
molecule
   28    31     1     0     0
SMALL
bcc


@<TRIPOS>ATOM
      1 C1           0.0000     0.0000     0.0000 ca         1 IDZ      -0.165000
      2 C2           1.3760     0.0000     0.0000 ca         1 IDZ      -0.079000
      3 C3           2.0830     0.0000     1.1950 ca         1 IDZ      -0.173000
      4 C4           1.4250    -0.0020     2.3920 ca         1 IDZ      -0.038000
      5 C5           0.0290    -0.0030     2.4160 ca         1 IDZ      -0.215900
      6 C6          -0.9700    -0.0050     3.4920 cc         1 IDZ       0.363600
      7 C7          -0.6920    -0.0070     4.9420 cc         1 IDZ       0.424500
      8 N8          -1.6430    -0.0090     5.9270 na         1 IDZ      -0.250300
      9 C9          -0.9770    -0.0110     7.1390 ca         1 IDZ      -0.087200
     10 C10         -1.3900    -0.0130     8.4620 ca         1 IDZ      -0.129000
     11 C11         -0.4530    -0.0130     9.4740 ca         1 IDZ      -0.111000
     12 C12          0.9020    -0.0120     9.1770 ca         1 IDZ      -0.146000
     13 C13          1.3310    -0.0090     7.8700 ca         1 IDZ      -0.070000
     14 C14          0.3950    -0.0090     6.8310 ca         1 IDZ       0.092400
     15 N16         -2.0240    -0.0040     1.5370 na         1 IDZ      -0.045100
     16 C17         -0.6920    -0.0080     1.2080 ca         1 IDZ      -0.021200
     17 NAL          0.5040    -0.0130     5.4810 nd         1 IDZ      -0.591100
     18 NAI         -2.1570    -0.0050     2.9290 nd         1 IDZ      -0.507100
     19 H1          -0.5430    -0.0000    -0.9370 ha         1 IDZ       0.130000
     20 H2           1.9130     0.0020    -0.9410 ha         1 IDZ       0.133000
     21 H3           3.1660     0.0000     1.1780 ha         1 IDZ       0.135000
     22 H4           1.9840    -0.0020     3.3200 ha         1 IDZ       0.161000
     23 H8          -2.6260     0.1290     5.7960 hn         1 IDZ       0.313700
     24 H10         -2.4470    -0.0140     8.7010 ha         1 IDZ       0.128000
     25 H11         -0.7770    -0.0160    10.5080 ha         1 IDZ       0.133000
     26 H12          1.6280    -0.0120     9.9810 ha         1 IDZ       0.134000
     27 H13          2.3910    -0.0080     7.6470 ha         1 IDZ       0.142000
     28 H16         -2.7820    -0.0040     0.8840 hn         1 IDZ       0.335700
@<TRIPOS>BOND
     1     1     2 ar
     2     1    16 ar
     3     1    19 1
     4     2     3 ar
     5     2    20 1
     6     3     4 ar
     7     3    21 1
     8     4     5 ar
     9     4    22 1
    10     5     6 1
    11     5    16 ar
    12     6     7 1
    13     6    18 2
    14     7     8 1
    15     7    17 2
    16     8     9 1
    17     8    23 1
    18     9    10 ar
    19     9    14 ar
    20    10    11 ar
    21    10    24 1
    22    11    12 ar
    23    11    25 1
    24    12    13 ar
    25    12    26 1
    26    13    14 ar
    27    13    27 1
    28    14    17 1
    29    15    16 1
    30    15    18 1
    31    15    28 1
@<TRIPOS>SUBSTRUCTURE
     1 IDZ         1 TEMP              0 ****  ****    0 ROOT
