@<TRIPOS>MOLECULE
IE2
   39    42     1     0     0
SMALL
bcc


@<TRIPOS>ATOM
      1 CAA          0.0000     0.0000     0.0000 c3         1 IE2      -0.043400
      2 NAB          6.5470    -3.7870     4.4560 nz         1 IE2      -0.122500
      3 OAC          6.5650    -1.2940     5.2680 o          1 IE2      -0.437300
      4 OAD          8.5750    -2.1380     4.6590 o          1 IE2      -0.437300
      5 CAE          2.4540     0.0000     0.4450 ca         1 IE2      -0.218300
      6 CAF          5.8470    -1.7360     0.5090 ca         1 IE2      -0.094000
      7 CAG          7.6590    -0.1940     0.8530 ca         1 IE2      -0.094000
      8 CAH          5.9910    -2.1890     1.8050 ca         1 IE2       0.013500
      9 CAI          7.7970    -0.6520     2.1480 ca         1 IE2       0.013500
     10 CAJ          3.7670     0.0000     0.0000 ca         1 IE2      -0.098000
     11 CAK          7.0550     0.3740    -3.3320 cc         1 IE2       0.426200
     12 CAL          4.6460     0.8700    -4.1920 c3         1 IE2       0.052000
     13 NAM          7.5770    -0.0520    -2.2050 nd         1 IE2      -0.631800
     14 NAN          1.6720    -0.0490    -1.7750 nb         1 IE2      -0.519000
     15 SAO          3.1570    -0.1370    -4.0010 ss         1 IE2      -0.366400
     16 CAP          1.4280    -0.0170    -0.4810 ca         1 IE2       0.400600
     17 CAQ          6.6820    -0.7360     0.0270 ca         1 IE2      -0.025200
     18 CAR          6.9640    -1.6470     2.6240 ca         1 IE2      -0.151500
     19 CAS          5.6760     0.4430    -3.1810 cc         1 IE2      -0.222600
     20 CAT          3.9970    -0.0160    -1.3740 ca         1 IE2      -0.142300
     21 CAU          2.9080    -0.0600    -2.2590 ca         1 IE2       0.550600
     22 CAV          5.3710     0.0380    -1.9060 cd         1 IE2      -0.184300
     23 NAW          6.5390    -0.2750    -1.2870 na         1 IE2       0.581300
     24 SAX          7.1600    -2.2030     4.2860 sy         1 IE2       0.748200
     25 HAA         -0.3830     1.0120    -0.0430 hc         1 IE2       0.021700
     26 HAAA        -0.6020    -0.6410    -0.6330 hc         1 IE2       0.021700
     27 HAAB        -0.0420    -0.3590     1.0210 hc         1 IE2       0.021700
     28 HNAB         6.5830    -4.0580     5.4190 hn         1 IE2       0.313467
     29 HNAA         5.5980    -3.8130     4.1380 hn         1 IE2       0.313467
     30 HAE          2.2420    -0.0120     1.5070 ha         1 IE2       0.117000
     31 HAF          5.1370    -2.2130    -0.1550 ha         1 IE2       0.152500
     32 HAG          8.2900     0.6080     0.4920 ha         1 IE2       0.152500
     33 HAH          5.3400    -2.9690     2.1810 ha         1 IE2       0.112500
     34 HAI          8.5500    -0.2210     2.7970 ha         1 IE2       0.112500
     35 HAJ          4.5810    -0.0480     0.7140 ha         1 IE2       0.110000
     36 HAK          7.6040     0.6320    -4.2300 h4         1 IE2       0.024100
     37 HAL          5.4240     0.2020    -4.5410 h1         1 IE2       0.108200
     38 HALA         4.3990     1.6490    -4.9030 h1         1 IE2       0.108200
     39 HAB3         7.2390    -4.4470     4.1610 hn         1 IE2       0.313467
@<TRIPOS>BOND
     1     1    16 1   
     2     1    25 1   
     3     1    26 1   
     4     1    27 1   
     5     2    24 1   
     6     2    28 1   
     7     2    29 1   
     8     2    39 1   
     9     3    24 2   
    10     4    24 2   
    11     5    10 ar  
    12     5    16 ar  
    13     5    30 1   
    14     6     8 ar  
    15     6    17 ar  
    16     6    31 1   
    17     7     9 ar  
    18     7    17 ar  
    19     7    32 1   
    20     8    18 ar  
    21     8    33 1   
    22     9    18 ar  
    23     9    34 1   
    24    10    20 ar  
    25    10    35 1   
    26    11    13 2   
    27    11    19 1   
    28    11    36 1   
    29    12    15 1   
    30    12    19 1   
    31    12    37 1   
    32    12    38 1   
    33    13    23 1   
    34    14    16 ar  
    35    14    21 ar  
    36    15    21 1   
    37    17    23 1   
    38    18    24 1   
    39    19    22 2   
    40    20    21 ar  
    41    20    22 1   
    42    22    23 1   
@<TRIPOS>SUBSTRUCTURE
     1 IE2         1 TEMP              0 ****  ****    0 ROOT
