@<TRIPOS>MOLECULE
molecule
   39    42     1     0     0
SMALL
bcc


@<TRIPOS>ATOM
      1 CAA          0.0000     0.0000     0.0000 c3         1 IE2      -0.146400
      2 NAB          6.5470    -3.7870     4.4560 nz         1 IE2      -0.789500
      3 OAC          6.5650    -1.2940     5.2680 o          1 IE2      -0.456300
      4 OAD          8.5750    -2.1380     4.6590 o          1 IE2      -0.456300
      5 CAE          2.4540     0.0000     0.4450 ca         1 IE2      -0.263300
      6 CAF          5.8470    -1.7360     0.5090 ca         1 IE2      -0.125500
      7 CAG          7.6590    -0.1940     0.8530 ca         1 IE2      -0.125500
      8 CAH          5.9910    -2.1890     1.8050 ca         1 IE2      -0.025000
      9 CAI          7.7970    -0.6520     2.1480 ca         1 IE2      -0.025000
     10 CAJ          3.7670     0.0000     0.0000 ca         1 IE2      -0.089000
     11 CAK          7.0550     0.3740    -3.3320 cc         1 IE2       0.361200
     12 CAL          4.6460     0.8700    -4.1920 c3         1 IE2      -0.048000
     13 NAM          7.5770    -0.0520    -2.2050 nd         1 IE2      -0.479800
     14 NAN          1.6720    -0.0490    -1.7750 nb         1 IE2      -0.659000
     15 SAO          3.1570    -0.1370    -4.0010 ss         1 IE2      -0.242400
     16 CAP          1.4280    -0.0170    -0.4810 ca         1 IE2       0.462600
     17 CAQ          6.6820    -0.7360     0.0270 ca         1 IE2       0.145800
     18 CAR          6.9640    -1.6470     2.6240 ca         1 IE2      -0.272500
     19 CAS          5.6760     0.4430    -3.1810 cc         1 IE2      -0.220600
     20 CAT          3.9970    -0.0160    -1.3740 ca         1 IE2      -0.178300
     21 CAU          2.9080    -0.0600    -2.2590 ca         1 IE2       0.572600
     22 CAV          5.3710     0.0380    -1.9060 cd         1 IE2      -0.011300
     23 NAW          6.5390    -0.2750    -1.2870 na         1 IE2       0.117300
     24 SAX          7.1600    -2.2030     4.2860 sy         1 IE2       1.022200
     25 HAA         -0.3830     1.0120    -0.0430 hc         1 IE2       0.062033
     26 HAAA        -0.6020    -0.6410    -0.6330 hc         1 IE2       0.062033
     27 HAAB        -0.0420    -0.3590     1.0210 hc         1 IE2       0.062033
     28 HNAB         6.5830    -4.0580     5.4190 hn         1 IE2       0.489800
     29 HNAA         5.5980    -3.8130     4.1380 hn         1 IE2       0.489800
     30 HAE          2.2420    -0.0120     1.5070 ha         1 IE2       0.141000
     31 HAF          5.1370    -2.2130    -0.1550 ha         1 IE2       0.186500
     32 HAG          8.2900     0.6080     0.4920 ha         1 IE2       0.186500
     33 HAH          5.3400    -2.9690     2.1810 ha         1 IE2       0.145000
     34 HAI          8.5500    -0.2210     2.7970 ha         1 IE2       0.145000
     35 HAJ          4.5810    -0.0480     0.7140 ha         1 IE2       0.130000
     36 HAK          7.6040     0.6320    -4.2300 h4         1 IE2       0.074100
     37 HAL          5.4240     0.2020    -4.5410 h1         1 IE2       0.134200
     38 HALA         4.3990     1.6490    -4.9030 h1         1 IE2       0.134200
     39 HAB3         7.2390    -4.4470     4.1610 hn         1 IE2       0.489800
@<TRIPOS>BOND
     1     1    16 1
     2     2    24 1
     3     3    24 2
     4     4    24 2
     5     5    10 ar
     6     5    16 ar
     7     6     8 ar
     8     6    17 ar
     9     7     9 ar
    10     7    17 ar
    11     8    18 ar
    12     9    18 ar
    13    10    20 ar
    14    11    13 2
    15    11    19 1
    16    12    15 1
    17    12    19 1
    18    13    23 1
    19    14    16 ar
    20    14    21 ar
    21    15    21 1
    22    17    23 1
    23    18    24 1
    24    19    22 2
    25    20    21 ar
    26    20    22 1
    27    22    23 1
    28     1    25 1
    29     1    26 1
    30     1    27 1
    31     2    28 1
    32     2    29 1
    33     5    30 1
    34     6    31 1
    35     7    32 1
    36     8    33 1
    37     9    34 1
    38    10    35 1
    39    11    36 1
    40    12    37 1
    41    12    38 1
    42    39     2 1
@<TRIPOS>SUBSTRUCTURE
     1 IE2         1 TEMP              0 ****  ****    0 ROOT
