@<TRIPOS>MOLECULE
IE4
   36    38     1     0     0
SMALL
bcc


@<TRIPOS>ATOM
      1 C20          0.0000     0.0000     0.0000 cc         1 IE4      -0.193000
      2 C21          1.3930     0.0000     0.0000 cc         1 IE4       0.023000
      3 C11          5.5440    -1.2070     0.6350 cc         1 IE4      -0.192000
      4 C10          6.5410    -1.1090    -0.3160 cc         1 IE4       0.051000
      5 C19         -0.6850    -0.0000     1.1770 cd         1 IE4      -0.227300
      6 C15          3.4380     0.0010     3.0130 cc         1 IE4       0.146600
      7 C22          2.0600     0.0000     1.2170 cd         1 IE4      -0.131800
      8 C14          3.4680     0.0000     1.6280 cd         1 IE4      -0.178400
      9 C12          4.6890    -0.1640     0.6620 cd         1 IE4       0.215100
     10 C17          1.3160    -0.0000     2.4280 cd         1 IE4      -0.222300
     11 C09          6.5060    -0.0020    -1.0600 cd         1 IE4      -0.117600
     12 C04          5.7820     0.2900    -4.3000 c3         1 IE4       0.228800
     13 C03          5.6320    -0.1670    -5.7520 c3         1 IE4      -0.068200
     14 N18         -0.0560     0.0000     2.3630 na         1 IE4       0.540900
     15 N16          2.1760    -0.0000     3.4330 nc         1 IE4      -0.281600
     16 N05          7.0360    -0.2310    -3.7510 n7         1 IE4      -0.594100
     17 N02          4.3740     0.3550    -6.3030 nz         1 IE4       0.095400
     18 O07          7.6180     1.8070    -2.4860 o          1 IE4      -0.548800
     19 O08          8.8340    -0.3350    -2.0640 o          1 IE4      -0.548800
     20 S13          5.1520     1.0060    -0.5660 ss         1 IE4      -0.221800
     21 S06          7.6470     0.3930    -2.3440 sy         1 IE4       1.074200
     22 H20         -0.5400    -0.0000    -0.9390 ha         1 IE4       0.121000
     23 H21          1.9450     0.0000    -0.9320 ha         1 IE4       0.095000
     24 H19         -1.7690    -0.0000     1.1550 h4         1 IE4       0.140000
     25 H11          5.4560    -2.0540     1.3050 ha         1 IE4       0.143000
     26 H10          7.2960    -1.8750    -0.4480 ha         1 IE4       0.131000
     27 H18         -0.5920     0.0000     3.2080 hn         1 IE4       0.114700
     28 H15          4.3100     0.0020     3.6560 h4         1 IE4       0.136000
     29 H041         5.7940     1.3730    -4.2620 h1         1 IE4       0.031700
     30 H042         4.9490    -0.0830    -3.7160 h1         1 IE4       0.031700
     31 H031         6.4640     0.2070    -6.3360 hx         1 IE4       0.088200
     32 H032         5.6210    -1.2490    -5.7910 hx         1 IE4       0.088200
     33 H05          7.5400    -0.9430    -4.2420 hn         1 IE4       0.357800
     34 H021         4.3840     1.3550    -6.2670 hn         1 IE4       0.223800
     35 H022         3.6050     0.0100    -5.7640 hn         1 IE4       0.223800
     36 H023         4.2770     0.0560    -7.2530 hn         1 IE4       0.223800
@<TRIPOS>BOND
     1     1     2 1   
     2     1     5 2   
     3     1    22 1   
     4     2     7 2   
     5     2    23 1   
     6     3     4 1   
     7     3     9 2   
     8     3    25 1   
     9     4    11 2   
    10     4    26 1   
    11     5    14 1   
    12     5    24 1   
    13     6     8 2   
    14     6    15 1   
    15     6    28 1   
    16     7     8 1   
    17     7    10 1   
    18     8     9 1   
    19     9    20 1   
    20    10    14 1   
    21    10    15 2   
    22    11    20 1   
    23    11    21 1   
    24    12    13 1   
    25    12    16 1   
    26    12    29 1   
    27    12    30 1   
    28    13    17 1   
    29    13    31 1   
    30    13    32 1   
    31    14    27 1   
    32    16    21 1   
    33    16    33 1   
    34    17    34 1   
    35    17    35 1   
    36    17    36 1   
    37    18    21 2   
    38    19    21 2   
@<TRIPOS>SUBSTRUCTURE
     1 IE4         1 TEMP              0 ****  ****    0 ROOT
