@<TRIPOS>MOLECULE
molecule
   36    38     1     0     0
SMALL
bcc


@<TRIPOS>ATOM
      1 C20          0.0000     0.0000     0.0000 cc         1 IE4      -0.241000
      2 C21          1.3930     0.0000     0.0000 cc         1 IE4       0.000000
      3 C11          5.5440    -1.2070     0.6350 cc         1 IE4      -0.200000
      4 C10          6.5410    -1.1090    -0.3160 cc         1 IE4       0.009000
      5 C19         -0.6850    -0.0000     1.1770 cd         1 IE4      -0.015300
      6 C15          3.4380     0.0010     3.0130 cc         1 IE4       0.149600
      7 C22          2.0600     0.0000     1.2170 cd         1 IE4      -0.146800
      8 C14          3.4680     0.0000     1.6280 cd         1 IE4      -0.177400
      9 C12          4.6890    -0.1640     0.6620 cd         1 IE4       0.136100
     10 C17          1.3160    -0.0000     2.4280 cd         1 IE4       0.031700
     11 C09          6.5060    -0.0020    -1.0600 cd         1 IE4      -0.321600
     12 C04          5.7820     0.2900    -4.3000 c3         1 IE4       0.221800
     13 C03          5.6320    -0.1670    -5.7520 c3         1 IE4       0.080800
     14 N18         -0.0560     0.0000     2.3630 na         1 IE4      -0.094100
     15 N16          2.1760    -0.0000     3.4330 nc         1 IE4      -0.363600
     16 N05          7.0360    -0.2310    -3.7510 n7         1 IE4      -0.911100
     17 N02          4.3740     0.3550    -6.3030 nz         1 IE4      -0.808600
     18 O07          7.6180     1.8070    -2.4860 o          1 IE4      -0.605800
     19 O08          8.8340    -0.3350    -2.0640 o          1 IE4      -0.605800
     20 S13          5.1520     1.0060    -0.5660 ss         1 IE4      -0.083800
     21 S06          7.6470     0.3930    -2.3440 sy         1 IE4       1.441200
     22 H20         -0.5400    -0.0000    -0.9390 ha         1 IE4       0.151000
     23 H21          1.9450     0.0000    -0.9320 ha         1 IE4       0.126000
     24 H19         -1.7690    -0.0000     1.1550 h4         1 IE4       0.172000
     25 H11          5.4560    -2.0540     1.3050 ha         1 IE4       0.171000
     26 H10          7.2960    -1.8750    -0.4480 ha         1 IE4       0.165000
     27 H18         -0.5920     0.0000     3.2080 hn         1 IE4       0.318700
     28 H15          4.3100     0.0020     3.6560 h4         1 IE4       0.185000
     29 H041         5.7940     1.3730    -4.2620 h1         1 IE4       0.067200
     30 H042         4.9490    -0.0830    -3.7160 h1         1 IE4       0.067200
     31 H031         6.4640     0.2070    -6.3360 hx         1 IE4       0.119200
     32 H032         5.6210    -1.2490    -5.7910 hx         1 IE4       0.119200
     33 H05          7.5400    -0.9430    -4.2420 hn         1 IE4       0.462800
     34 H021         4.3840     1.3550    -6.2670 hn         1 IE4       0.460467
     35 H022         3.6050     0.0100    -5.7640 hn         1 IE4       0.460467
     36 H023         4.2770     0.0560    -7.2530 hn         1 IE4       0.460467
@<TRIPOS>BOND
     1     1     2 1
     2     1     5 2
     3     2     7 2
     4     3     4 1
     5     3     9 2
     6     4    11 2
     7     5    14 1
     8     6     8 2
     9     6    15 1
    10     7     8 1
    11     7    10 1
    12     8     9 1
    13     9    20 1
    14    10    14 1
    15    10    15 2
    16    11    20 1
    17    11    21 1
    18    12    13 1
    19    12    16 1
    20    13    17 1
    21    16    21 1
    22    18    21 2
    23    19    21 2
    24     1    22 1
    25     2    23 1
    26     5    24 1
    27     3    25 1
    28     4    26 1
    29    14    27 1
    30     6    28 1
    31    12    29 1
    32    12    30 1
    33    13    31 1
    34    13    32 1
    35    16    33 1
    36    17    34 1
    37    17    35 1
    38    36    17 1
@<TRIPOS>SUBSTRUCTURE
     1 IE4         1 TEMP              0 ****  ****    0 ROOT
