@<TRIPOS>MOLECULE
IE6
   39    41     1     0     0
SMALL
bcc


@<TRIPOS>ATOM
      1 C12          0.0000     0.0000     0.0000 cc         1 IE6      -0.174000
      2 C13          1.3790     0.0000     0.0000 cc         1 IE6       0.045000
      3 C06         -2.8650     0.9150     0.8750 ca         1 IE6      -0.225300
      4 C03         -2.0570    -2.0100     3.2200 cc         1 IE6      -0.175200
      5 C07         -4.2170     0.8780     1.1580 ca         1 IE6       0.410200
      6 C04         -2.5860    -0.9270     2.3940 ca         1 IE6      -0.199100
      7 C05         -2.0130    -0.0010     1.4980 ca         1 IE6       0.025000
      8 C11         -0.5630    -0.0010     1.2270 cd         1 IE6       0.165900
      9 C02         -3.1010    -2.5490     3.8720 cd         1 IE6      -0.226300
     10 C09         -3.9720    -0.8950     2.6250 ca         1 IE6       0.231800
     11 C14          1.9450     0.0000     1.2110 cd         1 IE6      -0.112600
     12 C01         -3.0180    -3.7010     4.8400 c3         1 IE6       0.093100
     13 C20          3.6710     2.4390     2.6850 c3         1 IE6       0.228800
     14 C21          4.5290     3.7040     2.7640 c3         1 IE6      -0.068200
     15 N08         -4.7260     0.0020     2.0000 nb         1 IE6      -0.548000
     16 N10         -4.2520    -1.8930     3.5270 na         1 IE6       0.275900
     17 N19          4.1630     1.5820     1.6040 n7         1 IE6      -0.592100
     18 N22          4.0370     4.5640     3.8480 nz         1 IE6       0.095400
     19 O17          3.8590    -0.5450     2.8180 o          1 IE6      -0.547300
     20 O18          4.2940    -0.5430     0.3560 o          1 IE6      -0.547300
     21 S15          0.7000    -0.0010     2.4510 ss         1 IE6      -0.193800
     22 S16          3.6810     0.0010     1.5170 sy         1 IE6       1.073200
     23 H12         -0.5850     0.0000    -0.9120 ha         1 IE6       0.143000
     24 H13          1.9600     0.0010    -0.9140 ha         1 IE6       0.133000
     25 H06         -2.4700     1.6450     0.1790 ha         1 IE6       0.115000
     26 H07         -4.8760     1.5890     0.6740 h4         1 IE6      -0.014900
     27 H03         -1.0600    -2.4280     3.1590 ha         1 IE6       0.144000
     28 H011        -3.2750    -4.6200     4.3290 hc         1 IE6       0.015367
     29 H012        -3.7090    -3.5360     5.6570 hc         1 IE6       0.015367
     30 H013        -2.0090    -3.7740     5.2280 hc         1 IE6       0.015367
     31 H10         -5.1640    -2.1080     3.8790 hn         1 IE6       0.126700
     32 H201         3.7300     1.9040     3.6250 h1         1 IE6       0.032200
     33 H202         2.6420     2.7130     2.4890 h1         1 IE6       0.032200
     34 H211         5.5590     3.4300     2.9590 hx         1 IE6       0.088200
     35 H212         4.4710     4.2390     1.8240 hx         1 IE6       0.088200
     36 H19          4.7920     1.9520     0.9190 hn         1 IE6       0.358800
     37 H221         4.6140     5.3790     3.9150 hn         1 IE6       0.224133
     38 H222         3.0940     4.8370     3.6550 hn         1 IE6       0.224133
     39 H223         4.0690     4.0610     4.7130 hn         1 IE6       0.224133
@<TRIPOS>BOND
     1     1     2 1   
     2     1     8 2   
     3     1    23 1   
     4     2    11 2   
     5     2    24 1   
     6     3     5 ar  
     7     3     7 ar  
     8     3    25 1   
     9     4     6 1   
    10     4     9 2   
    11     4    27 1   
    12     5    15 ar  
    13     5    26 1   
    14     6     7 ar  
    15     6    10 ar  
    16     7     8 1   
    17     8    21 1   
    18     9    12 1   
    19     9    16 1   
    20    10    15 ar  
    21    10    16 1   
    22    11    21 1   
    23    11    22 1   
    24    12    28 1   
    25    12    29 1   
    26    12    30 1   
    27    13    14 1   
    28    13    17 1   
    29    13    32 1   
    30    13    33 1   
    31    14    18 1   
    32    14    34 1   
    33    14    35 1   
    34    16    31 1   
    35    17    22 1   
    36    17    36 1   
    37    18    37 1   
    38    18    38 1   
    39    18    39 1   
    40    19    22 2   
    41    20    22 2   
@<TRIPOS>SUBSTRUCTURE
     1 IE6         1 TEMP              0 ****  ****    0 ROOT
