@<TRIPOS>MOLECULE
molecule
   39    41     1     0     0
SMALL
bcc


@<TRIPOS>ATOM
      1 C12          0.0000     0.0000     0.0000 cc         1 IE6      -0.185000
      2 C13          1.3790     0.0000     0.0000 cc         1 IE6       0.004000
      3 C06         -2.8650     0.9150     0.8750 ca         1 IE6      -0.259300
      4 C03         -2.0570    -2.0100     3.2200 cc         1 IE6      -0.214200
      5 C07         -4.2170     0.8780     1.1580 ca         1 IE6       0.447200
      6 C04         -2.5860    -0.9270     2.3940 ca         1 IE6      -0.201100
      7 C05         -2.0130    -0.0010     1.4980 ca         1 IE6       0.021000
      8 C11         -0.5630    -0.0010     1.2270 cd         1 IE6       0.095900
      9 C02         -3.1010    -2.5490     3.8720 cd         1 IE6      -0.021300
     10 C09         -3.9720    -0.8950     2.6250 ca         1 IE6       0.474800
     11 C14          1.9450     0.0000     1.2110 cd         1 IE6      -0.320600
     12 C01         -3.0180    -3.7010     4.8400 c3         1 IE6      -0.036900
     13 C20          3.6710     2.4390     2.6850 c3         1 IE6       0.221800
     14 C21          4.5290     3.7040     2.7640 c3         1 IE6       0.079800
     15 N08         -4.7260     0.0020     2.0000 nb         1 IE6      -0.691000
     16 N10         -4.2520    -1.8930     3.5270 na         1 IE6      -0.272100
     17 N19          4.1630     1.5820     1.6040 n7         1 IE6      -0.910100
     18 N22          4.0370     4.5640     3.8480 nz         1 IE6      -0.808600
     19 O17          3.8590    -0.5450     2.8180 o          1 IE6      -0.604300
     20 O18          4.2940    -0.5430     0.3560 o          1 IE6      -0.604300
     21 S15          0.7000    -0.0010     2.4510 ss         1 IE6      -0.044800
     22 S16          3.6810     0.0010     1.5170 sy         1 IE6       1.440200
     23 H12         -0.5850     0.0000    -0.9120 ha         1 IE6       0.172000
     24 H13          1.9600     0.0010    -0.9140 ha         1 IE6       0.167000
     25 H06         -2.4700     1.6450     0.1790 ha         1 IE6       0.140000
     26 H07         -4.8760     1.5890     0.6740 h4         1 IE6       0.034100
     27 H03         -1.0600    -2.4280     3.1590 ha         1 IE6       0.163000
     28 H011        -3.2750    -4.6200     4.3290 hc         1 IE6       0.059033
     29 H012        -3.7090    -3.5360     5.6570 hc         1 IE6       0.059033
     30 H013        -2.0090    -3.7740     5.2280 hc         1 IE6       0.059033
     31 H10         -5.1640    -2.1080     3.8790 hn         1 IE6       0.313700
     32 H201         3.7300     1.9040     3.6250 h1         1 IE6       0.068200
     33 H202         2.6420     2.7130     2.4890 h1         1 IE6       0.068200
     34 H211         5.5590     3.4300     2.9590 hx         1 IE6       0.119200
     35 H212         4.4710     4.2390     1.8240 hx         1 IE6       0.119200
     36 H19          4.7920     1.9520     0.9190 hn         1 IE6       0.463800
     37 H221         4.6140     5.3790     3.9150 hn         1 IE6       0.461800
     38 H222         3.0940     4.8370     3.6550 hn         1 IE6       0.461800
     39 H223         4.0690     4.0610     4.7130 hn         1 IE6       0.461800
@<TRIPOS>BOND
     1     1     2 1
     2     1     8 2
     3     2    11 2
     4     3     5 ar
     5     3     7 ar
     6     4     6 1
     7     4     9 2
     8     5    15 ar
     9     6     7 ar
    10     6    10 ar
    11     7     8 1
    12     8    21 1
    13     9    12 1
    14     9    16 1
    15    10    15 ar
    16    10    16 1
    17    11    21 1
    18    11    22 1
    19    13    14 1
    20    13    17 1
    21    14    18 1
    22    17    22 1
    23    19    22 2
    24    20    22 2
    25     1    23 1
    26     2    24 1
    27     3    25 1
    28     5    26 1
    29     4    27 1
    30    12    28 1
    31    12    29 1
    32    12    30 1
    33    16    31 1
    34    13    32 1
    35    13    33 1
    36    14    34 1
    37    14    35 1
    38    17    36 1
    39    18    37 1
    40    18    38 1
    41    39    18 1
@<TRIPOS>SUBSTRUCTURE
     1 IE6         1 TEMP              0 ****  ****    0 ROOT
