@<TRIPOS>MOLECULE
IE8
   51    55     1     0     0
SMALL
bcc


@<TRIPOS>ATOM
      1 C          -0.4710    0.4770    1.1380 c3        1 IE8      0.093800
      2 N          -1.7640    0.7150    0.4340 n4        1 IE8     -0.834600
      3 O           0.3370   -0.4800   -0.8600 os        1 IE8     -0.377900
      4 C1          0.7360    0.4420    0.1690 c3        1 IE8      0.190400
      5 N1          2.5350   -1.8170   -3.4410 nb        1 IE8     -0.661000
      6 O1          4.5070   -2.0700   -7.1770 os        1 IE8     -0.348800
      7 C2          1.1510   -0.4870   -1.9870 ca        1 IE8     -0.074200
      8 N2          2.4010    3.6650   -5.8410 na        1 IE8     -0.278100
      9 C3          1.8300   -1.6820   -2.3140 ca        1 IE8      0.430200
     10 N3          0.8680    3.6010   -7.8020 nb        1 IE8     -0.659000
     11 C4          2.6170   -0.7650   -4.3090 ca        1 IE8      0.547800
     12 C5          3.4140   -0.9860   -5.5020 cc        1 IE8     -0.322800
     13 C6          4.0990   -0.0010   -6.3200 cc        1 IE8     -0.231300
     14 C7          4.7450   -0.6980   -7.3180 cd        1 IE8      0.239600
     15 C8          3.7030   -2.2270   -6.0620 cd        1 IE8      0.316600
     16 C9          1.9500    0.4690   -4.0530 ca        1 IE8     -0.097100
     17 C10         1.2150    0.5980   -2.8630 ca        1 IE8     -0.106000
     18 C11         1.9550    1.5940   -4.9610 cc        1 IE8     -0.109400
     19 C12         2.7050    2.7690   -4.8210 cd        1 IE8     -0.087100
     20 C13         1.4420    3.0710   -6.6790 ca        1 IE8      0.417800
     21 C14        -0.0210    2.8050   -8.4030 ca        1 IE8      0.420200
     22 C15        -0.3860    1.5040   -7.9620 ca        1 IE8     -0.264300
     23 C16         0.1960    0.9720   -6.8230 ca        1 IE8     -0.049000
     24 C17         1.1360    1.7520   -6.1410 ca        1 IE8     -0.183100
     25 C18         1.9370   -0.0020    0.9380 ca        1 IE8     -0.164300
     26 C19         2.8860    0.9440    1.3420 ca        1 IE8     -0.105000
     27 C20         4.0070    0.5390    2.0630 ca        1 IE8     -0.120000
     28 C21         4.1880   -0.8080    2.3800 ca        1 IE8     -0.090000
     29 C22         3.2460   -1.7540    1.9710 ca        1 IE8     -0.120000
     30 C23         2.1220   -1.3530    1.2510 ca        1 IE8     -0.105000
     31 H          -0.5430   -0.5200    1.6630 hx        1 IE8      0.121200
     32 HA         -0.3110    1.2930    1.8980 hx        1 IE8      0.121200
     33 HN         -1.7840    1.6560    0.0340 hn        1 IE8      0.464800
     34 HNA        -1.8500    0.0330   -0.3340 hn        1 IE8      0.464800
     35 H1          0.9060    1.4570   -0.2900 h1        1 IE8      0.069700
     36 H3          1.7940   -2.5580   -1.6430 h4        1 IE8      0.037100
     37 H6          4.0890    1.0740   -6.1610 ha        1 IE8      0.171000
     38 H7          5.3750   -0.4380   -8.1630 h4        1 IE8      0.065100
     39 H8          3.4410   -3.2540   -5.8180 h4        1 IE8      0.070100
     40 H10         0.6960    1.5400   -2.6410 ha        1 IE8      0.134000
     41 H12         3.4470    3.0240   -4.0610 h4        1 IE8      0.174000
     42 H14        -0.4840    3.2280   -9.3150 h4        1 IE8      0.033100
     43 H15        -1.1250    0.9320   -8.5400 ha        1 IE8      0.150000
     44 H16        -0.0610   -0.0350   -6.4660 ha        1 IE8      0.142000
     45 H19         2.7570    2.0070    1.0840 ha        1 IE8      0.135500
     46 H20         4.7540    1.2840    2.3790 ha        1 IE8      0.153000
     47 H21         5.0780   -1.1260    2.9470 ha        1 IE8      0.155000
     48 H22         3.3930   -2.8180    2.2110 ha        1 IE8      0.153000
     49 H23         1.3880   -2.0980    0.9070 ha        1 IE8      0.135500
     50 HN3        -2.5480    0.6030    1.0810 hn        1 IE8      0.464800
     51 HN2         2.8280    4.5410   -5.9960 hn        1 IE8      0.318700
@<TRIPOS>BOND
     1    1    2 1   
     2    1    4 1   
     3    1   31 1   
     4    1   32 1   
     5    2   33 1   
     6    2   34 1   
     7    2   50 1   
     8    3    4 1   
     9    3    7 1   
    10    4   25 1   
    11    4   35 1   
    12    5    9 ar  
    13    5   11 ar  
    14    6   14 1   
    15    6   15 1   
    16    7    9 ar  
    17    7   17 ar  
    18    8   19 1   
    19    8   20 1   
    20    8   51 1   
    21    9   36 1   
    22   10   20 ar  
    23   10   21 ar  
    24   11   12 1   
    25   11   16 ar  
    26   12   13 1   
    27   12   15 2   
    28   13   14 2   
    29   13   37 1   
    30   14   38 1   
    31   15   39 1   
    32   16   17 ar  
    33   16   18 1   
    34   17   40 1   
    35   18   19 2   
    36   18   24 1   
    37   19   41 1   
    38   20   24 ar  
    39   21   22 ar  
    40   21   42 1   
    41   22   23 ar  
    42   22   43 1   
    43   23   24 ar  
    44   23   44 1   
    45   25   26 ar  
    46   25   30 ar  
    47   26   27 ar  
    48   26   45 1   
    49   27   28 ar  
    50   27   46 1   
    51   28   29 ar  
    52   28   47 1   
    53   29   30 ar  
    54   29   48 1   
    55   30   49 1   
@<TRIPOS>SUBSTRUCTURE
     1 IE8         1 TEMP              0 ****  ****    0 ROOT
