@<TRIPOS>MOLECULE
IEE
   30    31     1     0     0
SMALL
bcc


@<TRIPOS>ATOM
      1 C16          0.0000     0.0000     0.0000 ca         1 IEE      -0.440600
      2 C2           1.3830     0.0000     0.0000 ca         1 IEE       0.488300
      3 Cl1          2.2610     0.0010    -1.4970 cl         1 IEE      -0.087000
      4 N3           2.0300     0.0000     1.1580 nb         1 IEE      -0.675000
      5 C4           1.3710    -0.0010     2.3060 ca         1 IEE       0.767900
      6 N17          2.0830    -0.0010     3.4930 nv         1 IEE      -0.639500
      7 N5           0.0470    -0.0000     2.3480 nb         1 IEE      -0.704000
      8 C6          -0.6660     0.0000     1.2250 ca         1 IEE       0.557200
      9 N7          -2.0510     0.0000     1.2730 nu         1 IEE      -0.495900
     10 C8          -2.8270     0.0000     0.0300 c3         1 IEE       0.224100
     11 C9          -4.2980     0.0000     0.3570 ca         1 IEE      -0.136300
     12 C10         -4.9720     1.1970     0.5060 ca         1 IEE      -0.076500
     13 C11         -6.3220     1.1970     0.8060 ca         1 IEE      -0.103000
     14 C12         -6.9980     0.0000     0.9540 ca         1 IEE      -0.076300
     15 C15         -8.4680     0.0000     1.2810 c3         1 IEE       0.062200
     16 C13         -6.3230    -1.1970     0.8030 ca         1 IEE      -0.103000
     17 C14         -4.9740    -1.1970     0.5000 ca         1 IEE      -0.076500
     18 H16         -0.5540     0.0000    -0.9310 ha         1 IEE       0.140000
     19 H171         2.3390    -0.8680     3.9230 hn         1 IEE       0.280800
     20 H172         2.3400     0.8660     3.9230 hn         1 IEE       0.280800
     21 H7          -2.5210    -0.0200     2.1570 hn         1 IEE       0.307800
     22 H81C        -2.5850    -0.8850    -0.5470 h1         1 IEE       0.021200
     23 H82C        -2.5850     0.8850    -0.5470 h1         1 IEE       0.021200
     24 H10         -4.4430     2.1350     0.3900 ha         1 IEE       0.108000
     25 H14         -4.4460    -2.1350     0.3810 ha         1 IEE       0.108000
     26 H11         -6.8510     2.1350     0.9230 ha         1 IEE       0.109000
     27 H151        -9.0340     0.2790     0.4000 hc         1 IEE       0.009367
     28 H152        -8.7660    -0.9900     1.6030 hc         1 IEE       0.009367
     29 H153        -8.6610     0.7110     2.0750 hc         1 IEE       0.009367
     30 H13         -6.8520    -2.1350     0.9170 ha         1 IEE       0.109000
@<TRIPOS>BOND
     1     1     2 ar  
     2     1     8 ar  
     3     1    18 1   
     4     2     3 1   
     5     2     4 ar  
     6     4     5 ar  
     7     5     6 1   
     8     5     7 ar  
     9     6    19 1   
    10     6    20 1   
    11     7     8 ar  
    12     8     9 1   
    13     9    10 1   
    14     9    21 1   
    15    10    11 1   
    16    10    22 1   
    17    10    23 1   
    18    11    12 ar  
    19    11    17 ar  
    20    12    13 ar  
    21    12    24 1   
    22    13    14 ar  
    23    13    26 1   
    24    14    15 1   
    25    14    16 ar  
    26    15    27 1   
    27    15    28 1   
    28    15    29 1   
    29    16    17 ar  
    30    16    30 1   
    31    17    25 1   
@<TRIPOS>SUBSTRUCTURE
     1 IEE         1 TEMP              0 ****  ****    0 ROOT
