@<TRIPOS>MOLECULE
molecule
   30    31     1     0     0
SMALL
bcc


@<TRIPOS>ATOM
      1 C16          0.0000     0.0000     0.0000 ca         1 IEE      -0.451600
      2 C2           1.3830     0.0000     0.0000 ca         1 IEE       0.597300
      3 Cl1          2.2610     0.0010    -1.4970 cl         1 IEE      -0.155000
      4 N3           2.0300     0.0000     1.1580 nb         1 IEE      -0.791000
      5 C4           1.3710    -0.0010     2.3060 ca         1 IEE       0.986900
      6 N17          2.0830    -0.0010     3.4930 nv         1 IEE      -1.057500
      7 N5           0.0470    -0.0000     2.3480 nb         1 IEE      -0.819000
      8 C6          -0.6660     0.0000     1.2250 ca         1 IEE       0.743200
      9 N7          -2.0510     0.0000     1.2730 nu         1 IEE      -0.904900
     10 C8          -2.8270     0.0000     0.0300 c3         1 IEE       0.286100
     11 C9          -4.2980     0.0000     0.3570 ca         1 IEE      -0.127300
     12 C10         -4.9720     1.1970     0.5060 ca         1 IEE      -0.104500
     13 C11         -6.3220     1.1970     0.8060 ca         1 IEE      -0.130500
     14 C12         -6.9980     0.0000     0.9540 ca         1 IEE      -0.069300
     15 C15         -8.4680     0.0000     1.2810 c3         1 IEE      -0.050800
     16 C13         -6.3230    -1.1970     0.8030 ca         1 IEE      -0.130500
     17 C14         -4.9740    -1.1970     0.5000 ca         1 IEE      -0.104500
     18 H16         -0.5540     0.0000    -0.9310 ha         1 IEE       0.153000
     19 H171         2.3390    -0.8680     3.9230 hn         1 IEE       0.446800
     20 H172         2.3400     0.8660     3.9230 hn         1 IEE       0.446800
     21 H7          -2.5210    -0.0200     2.1570 hn         1 IEE       0.459800
     22 H81C        -2.5850    -0.8850    -0.5470 h1         1 IEE       0.049200
     23 H82C        -2.5850     0.8850    -0.5470 h1         1 IEE       0.049200
     24 H10         -4.4430     2.1350     0.3900 ha         1 IEE       0.135500
     25 H14         -4.4460    -2.1350     0.3810 ha         1 IEE       0.135500
     26 H11         -6.8510     2.1350     0.9230 ha         1 IEE       0.135000
     27 H151        -9.0340     0.2790     0.4000 hc         1 IEE       0.046367
     28 H152        -8.7660    -0.9900     1.6030 hc         1 IEE       0.046367
     29 H153        -8.6610     0.7110     2.0750 hc         1 IEE       0.046367
     30 H13         -6.8520    -2.1350     0.9170 ha         1 IEE       0.135000
@<TRIPOS>BOND
     1     1     2 ar
     2     1     8 ar
     3     2     3 1
     4     2     4 ar
     5     4     5 ar
     6     5     6 1
     7     5     7 ar
     8     7     8 ar
     9     8     9 1
    10     9    10 1
    11    10    11 1
    12    11    12 ar
    13    11    17 ar
    14    12    13 ar
    15    13    14 ar
    16    14    15 1
    17    14    16 ar
    18    16    17 ar
    19     1    18 1
    20     6    19 1
    21     6    20 1
    22     9    21 1
    23    10    22 1
    24    10    23 1
    25    12    24 1
    26    17    25 1
    27    13    26 1
    28    15    27 1
    29    15    28 1
    30    15    29 1
    31    16    30 1
@<TRIPOS>SUBSTRUCTURE
     1 IEE         1 TEMP              0 ****  ****    0 ROOT
