@<TRIPOS>MOLECULE
IEF
   52    51     1     0     0
SMALL
bcc


@<TRIPOS>ATOM
      1 P1         -0.3790   -0.2140   -0.2490 p5        1 IEF      1.601300
      2 O1          1.0190   -0.5960   -0.4090 o         1 IEF     -0.842300
      3 O2         -0.8410   -0.1410    1.2910 os        1 IEF     -0.616200
      4 CM          0.0070   -0.6870    2.2900 c3        1 IEF      0.180100
      5 CM2         0.3740    0.4170    3.2690 c3        1 IEF     -0.108600
      6 CM1        -0.7350   -1.8060    3.0020 c3        1 IEF     -0.108600
      7 C1         -0.8850    1.2090   -0.8900 c3        1 IEF     -0.418600
      8 C2         -0.4390    1.2430   -2.3310 c3        1 IEF     -0.077400
      9 C3         -0.7960    2.5410   -3.0170 c3        1 IEF     -0.069400
     10 C4         -0.3420    2.5370   -4.4620 c3        1 IEF     -0.080400
     11 C5         -0.6950    3.8390   -5.1490 c3        1 IEF     -0.078400
     12 C6         -0.2440    3.8360   -6.5940 c3        1 IEF     -0.079400
     13 C7         -0.5960    5.1380   -7.2810 c3        1 IEF     -0.078400
     14 C8         -0.1460    5.1350   -8.7260 c3        1 IEF     -0.079400
     15 C9         -0.4970    6.4370   -9.4140 c3        1 IEF     -0.079400
     16 C10        -0.0480    6.4320  -10.8590 c3        1 IEF     -0.076400
     17 C11        -0.3990    7.7380  -11.5440 c3        1 IEF     -0.052200
     18 C12         0.0510    7.7510  -12.9580 c2        1 IEF     -0.164200
     19 C13        -0.6980    8.1760  -13.9730 c2        1 IEF     -0.225000
     20 H2          0.9400   -1.0890    1.7920 h1        1 IEF      0.074700
     21 H3          0.9810   -0.0140    4.1010 hc        1 IEF      0.044867
     22 H4         -0.5490    0.8800    3.6910 hc        1 IEF      0.044867
     23 H5          0.9710    1.2110    2.7620 hc        1 IEF      0.044867
     24 H6         -0.0950   -2.2110    3.8220 hc        1 IEF      0.044867
     25 H7         -1.6870   -1.4200    3.4380 hc        1 IEF      0.044867
     26 H8         -0.9800   -2.6320    2.2940 hc        1 IEF      0.044867
     27 H9         -0.4550    2.0930   -0.3490 hc        1 IEF      0.116700
     28 H10        -1.9950    1.3590   -0.8350 hc        1 IEF      0.116700
     29 H11        -0.9170    0.3820   -2.8700 hc        1 IEF      0.061200
     30 H12         0.6740    1.0830   -2.3630 hc        1 IEF      0.061200
     31 H13        -1.9060    2.6990   -2.9700 hc        1 IEF      0.043200
     32 H14        -0.3160    3.3970   -2.4730 hc        1 IEF      0.043200
     33 H15        -0.8240    1.6820   -5.0060 hc        1 IEF      0.043700
     34 H16         0.7670    2.3760   -4.5070 hc        1 IEF      0.043700
     35 H17        -1.8050    4.0010   -5.1010 hc        1 IEF      0.040200
     36 H18        -0.2130    4.6940   -4.6060 hc        1 IEF      0.040200
     37 H19         0.8650    3.6740   -6.6410 hc        1 IEF      0.041200
     38 H20        -0.7270    2.9820   -7.1370 hc        1 IEF      0.041200
     39 H21        -0.1130    5.9930   -6.7380 hc        1 IEF      0.039700
     40 H22        -1.7050    5.3010   -7.2330 hc        1 IEF      0.039700
     41 H23        -0.6290    4.2810   -9.2690 hc        1 IEF      0.040700
     42 H24         0.9630    4.9710   -8.7740 hc        1 IEF      0.040700
     43 H25        -1.6060    6.6010   -9.3650 hc        1 IEF      0.039700
     44 H26        -0.0120    7.2910   -8.8720 hc        1 IEF      0.039700
     45 H27        -0.5350    5.5810  -11.4020 hc        1 IEF      0.042200
     46 H28         1.0610    6.2670  -10.9090 hc        1 IEF      0.042200
     47 H29        -1.5070    7.9100  -11.4790 hc        1 IEF      0.046700
     48 H30         0.0980    8.5880  -11.0010 hc        1 IEF      0.046700
     49 H31         1.0780    7.3860  -13.1220 ha        1 IEF      0.119000
     50 H32        -1.7250    8.5410  -13.8420 ha        1 IEF      0.110500
     51 H33        -0.3310    8.1880  -15.0070 ha        1 IEF      0.110500
     52 F1         -1.3220   -1.3120   -0.7510 f         1 IEF     -0.339400
@<TRIPOS>BOND
     1    1    2 2   
     2    1    3 1   
     3    1    7 1   
     4    1   52 1   
     5    3    4 1   
     6    4    5 1   
     7    4    6 1   
     8    4   20 1   
     9    5   21 1   
    10    5   22 1   
    11    5   23 1   
    12    6   24 1   
    13    6   25 1   
    14    6   26 1   
    15    7    8 1   
    16    7   27 1   
    17    7   28 1   
    18    8    9 1   
    19    8   29 1   
    20    8   30 1   
    21    9   10 1   
    22    9   31 1   
    23    9   32 1   
    24   10   11 1   
    25   10   33 1   
    26   10   34 1   
    27   11   12 1   
    28   11   35 1   
    29   11   36 1   
    30   12   13 1   
    31   12   37 1   
    32   12   38 1   
    33   13   14 1   
    34   13   39 1   
    35   13   40 1   
    36   14   15 1   
    37   14   41 1   
    38   14   42 1   
    39   15   16 1   
    40   15   43 1   
    41   15   44 1   
    42   16   17 1   
    43   16   45 1   
    44   16   46 1   
    45   17   18 1   
    46   17   47 1   
    47   17   48 1   
    48   18   19 2   
    49   18   49 1   
    50   19   50 1   
    51   19   51 1   
@<TRIPOS>SUBSTRUCTURE
     1 IEF         1 TEMP              0 ****  ****    0 ROOT
