@<TRIPOS>MOLECULE
molecule
   52    51     1     0     0
SMALL
bcc


@<TRIPOS>ATOM
      1 P1           0.0000     0.0000     0.0000 p5         1 IEF       1.373300
      2 O1           1.4810     0.0000     0.0000 o          1 IEF      -0.771300
      3 O2          -0.5370     0.0000     1.5180 os         1 IEF      -0.582200
      4 CM          -0.2300    -1.0370     2.4520 c3         1 IEF       0.208100
      5 CM2          0.5120    -0.4410     3.6500 c3         1 IEF      -0.108100
      6 CM1         -1.5270    -1.6930     2.9290 c3         1 IEF      -0.108100
      7 C1          -0.6080     1.4880    -0.8610 c3         1 IEF      -0.254600
      8 C2          -0.0980     1.4870    -2.3030 c3         1 IEF      -0.064400
      9 C3          -0.6090     2.7350    -3.0250 c3         1 IEF      -0.074400
     10 C4          -0.0990     2.7350    -4.4680 c3         1 IEF      -0.082400
     11 C5          -0.6100     3.9830    -5.1900 c3         1 IEF      -0.081400
     12 C6          -0.1000     3.9820    -6.6320 c3         1 IEF      -0.081400
     13 C7          -0.6110     5.2320    -7.3540 c3         1 IEF      -0.082400
     14 C8          -0.1010     5.2310    -8.7960 c3         1 IEF      -0.081400
     15 C9          -0.6120     6.4790    -9.5180 c3         1 IEF      -0.082400
     16 C10         -0.1020     6.4790   -10.9610 c3         1 IEF      -0.078400
     17 C11         -0.6120     7.7270   -11.6830 c3         1 IEF      -0.050200
     18 C12         -0.1100     7.7260   -13.1030 c2         1 IEF      -0.171200
     19 C13         -0.9570     7.8240   -14.0980 c2         1 IEF      -0.225000
     20 H2           0.3960    -1.7800     1.9730 h1         1 IEF       0.041700
     21 H3          -0.0360     0.4150     4.0250 hc         1 IEF       0.049200
     22 H4           0.5940    -1.1880     4.4310 hc         1 IEF       0.049200
     23 H5           1.5030    -0.1300     3.3430 hc         1 IEF       0.049200
     24 H6          -2.1810    -0.9380     3.3490 hc         1 IEF       0.049200
     25 H7          -1.3000    -2.4350     3.6860 hc         1 IEF       0.049200
     26 H8          -2.0200    -2.1710     2.0910 hc         1 IEF       0.049200
     27 H9          -1.6920     1.4870    -0.8610 hc         1 IEF       0.085200
     28 H10         -0.2480     2.3730    -0.3510 hc         1 IEF       0.085200
     29 H11         -0.4580     0.6020    -2.8130 hc         1 IEF       0.056700
     30 H12          0.9850     1.4880    -2.3030 hc         1 IEF       0.056700
     31 H13         -0.2490     3.6200    -2.5150 hc         1 IEF       0.042700
     32 H14         -1.6930     2.7340    -3.0250 hc         1 IEF       0.042700
     33 H15          0.9840     2.7350    -4.4680 hc         1 IEF       0.044200
     34 H16         -0.4590     1.8490    -4.9780 hc         1 IEF       0.044200
     35 H17         -1.6940     3.9820    -5.1900 hc         1 IEF       0.041200
     36 H18         -0.2500     4.8680    -4.6800 hc         1 IEF       0.041200
     37 H19         -0.4610     3.0970    -7.1420 hc         1 IEF       0.042200
     38 H20          0.9830     3.9830    -6.6320 hc         1 IEF       0.042200
     39 H21         -1.6940     5.2310    -7.3540 hc         1 IEF       0.041200
     40 H22         -0.2500     6.1170    -6.8440 hc         1 IEF       0.041200
     41 H23         -0.4610     4.3460    -9.3060 hc         1 IEF       0.041700
     42 H24          0.9820     5.2320    -8.7960 hc         1 IEF       0.041700
     43 H25         -0.2520     7.3650    -9.0080 hc         1 IEF       0.040700
     44 H26         -1.6950     6.4790    -9.5180 hc         1 IEF       0.040700
     45 H27          0.9810     6.4790   -10.9610 hc         1 IEF       0.043200
     46 H28         -0.4630     5.5940   -11.4710 hc         1 IEF       0.043200
     47 H29         -0.2510     8.6120   -11.1730 hc         1 IEF       0.046700
     48 H30         -1.6950     7.7270   -11.6830 hc         1 IEF       0.046700
     49 H31          0.9520     7.6450   -13.3020 ha         1 IEF       0.122000
     50 H32         -0.5960     7.8240   -15.1200 ha         1 IEF       0.111000
     51 H33         -2.0190     7.9060   -13.9000 ha         1 IEF       0.111000
     52 F1          -0.5550    -1.3650    -0.7870 f          1 IEF      -0.334400
@<TRIPOS>BOND
     1    11    12 1
     2    11    10 1
     3    12    13 1
     4    10     9 1
     5    16    17 1
     6    16    15 1
     7     9     8 1
     8    13    14 1
     9    17    18 1
    10    14    15 1
    11    18    19 2
    12     8     7 1
    13     7     1 1
    14     1     2 2
    15     1     3 1
    16     3     4 1
    17     5     4 1
    18     4     6 1
    19     4    20 1
    20     5    21 1
    21     5    22 1
    22     5    23 1
    23     6    24 1
    24     6    25 1
    25     6    26 1
    26     7    27 1
    27     7    28 1
    28     8    29 1
    29     8    30 1
    30     9    31 1
    31     9    32 1
    32    10    33 1
    33    10    34 1
    34    11    35 1
    35    11    36 1
    36    12    37 1
    37    12    38 1
    38    13    39 1
    39    13    40 1
    40    14    41 1
    41    14    42 1
    42    15    43 1
    43    15    44 1
    44    16    45 1
    45    16    46 1
    46    17    47 1
    47    17    48 1
    48    18    49 1
    49    19    50 1
    50    19    51 1
    51     1    52 1
@<TRIPOS>SUBSTRUCTURE
     1 IEF         1 TEMP              0 ****  ****    0 ROOT
