@<TRIPOS>MOLECULE
IEJ
   21    21     1     0     0
SMALL
bcc


@<TRIPOS>ATOM
      1 OAB          0.0000     0.0000     0.0000 o          1 IEJ      -0.497800
      2 SAD          1.4210     0.0000     0.0000 sy         1 IEJ       0.944200
      3 OAE          2.1990     0.0000     1.1890 o          1 IEJ      -0.497800
      4 NAC          1.8890    -1.3320    -0.8660 nz         1 IEJ      -0.151500
      5 CAG          1.9180     1.4190    -0.9190 ca         1 IEJ      -0.219500
      6 CAF          3.2620     1.6760    -1.1210 ca         1 IEJ       0.000700
      7 CAH          0.9650     2.2720    -1.4420 ca         1 IEJ       0.033000
      8 CAK          1.3550     3.3860    -2.1630 ca         1 IEJ      -0.109000
      9 CAJ          2.6980     3.6460    -2.3600 ca         1 IEJ       0.013000
     10 C            4.3010     0.7410    -0.5570 c3         1 IEJ       0.000200
     11 CAI          3.6510     2.7900    -1.8420 ca         1 IEJ      -0.102000
     12 HAC1         1.1460    -2.0020    -0.8760 hn         1 IEJ       0.319467
     13 HAC2         2.6990    -1.7390    -0.4400 hn         1 IEJ       0.319467
     14 HAH         -0.0870     2.0690    -1.2880 ha         1 IEJ       0.137000
     15 HAI          4.7040     2.9930    -1.9990 ha         1 IEJ       0.133000
     16 HC1          5.2730     1.2190    -0.5910 hc         1 IEJ       0.032033
     17 HC2          4.0520     0.5020     0.4700 hc         1 IEJ       0.032033
     18 HC3          4.3260    -0.1690    -1.1440 hc         1 IEJ       0.032033
     19 HAK          0.6080     4.0570    -2.5710 ha         1 IEJ       0.134000
     20 HAJ          3.0040     4.5180    -2.9240 ha         1 IEJ       0.125000
     21 HAC3         2.1070    -1.0610    -1.8040 hn         1 IEJ       0.319467
@<TRIPOS>BOND
     1     1     2 2   
     2     2     3 2   
     3     2     4 1   
     4     2     5 1   
     5     4    12 1   
     6     4    13 1   
     7     4    21 1   
     8     5     6 ar  
     9     5     7 ar  
    10     6    10 1   
    11     6    11 ar  
    12     7     8 ar  
    13     7    14 1   
    14     8     9 ar  
    15     8    19 1   
    16     9    11 ar  
    17     9    20 1   
    18    10    16 1   
    19    10    17 1   
    20    10    18 1   
    21    11    15 1   
@<TRIPOS>SUBSTRUCTURE
     1 IEJ         1 TEMP              0 ****  ****    0 ROOT
