@<TRIPOS>MOLECULE
molecule
   37    37     1     0     0
SMALL
bcc


@<TRIPOS>ATOM
      1 C1           0.0000     0.0000     0.0000 c          1 IEM       0.883800
      2 C2           1.4730     0.0000     0.0000 ce         1 IEM       0.058900
      3 C3           2.0670     0.0000     1.1780 c2         1 IEM      -0.338200
      4 C4           3.5670    -0.0180     1.3240 c3         1 IEM       0.180300
      5 C5           4.1850     0.2650    -0.0530 c3         1 IEM       0.094700
      6 C6           3.3900    -0.5430    -1.0880 c3         1 IEM       0.306900
      7 O7           4.0470    -0.4700    -2.3560 os         1 IEM      -0.403600
      8 C7           3.3280    -1.3300    -3.2420 c3         1 IEM       0.123400
      9 C8           3.9820    -1.2990    -4.6240 c3         1 IEM      -0.076700
     10 C9           3.2900    -2.3130    -5.5390 c3         1 IEM      -0.086100
     11 C10          3.8460     0.1030    -5.2220 c3         1 IEM      -0.086100
     12 C12          7.9890     0.2600     0.3770 c3         1 IEM      -0.173100
     13 N5           5.5900    -0.1500    -0.0640 ns         1 IEM      -0.573900
     14 O1A         -0.6750    -0.0000    -1.1680 o          1 IEM      -0.818300
     15 O1B         -0.6080     0.0000     1.0520 o          1 IEM      -0.818300
     16 O4           3.9740     0.9880     2.2530 oh         1 IEM      -0.580800
     17 O6           2.0790    -0.0010    -1.2000 os         1 IEM      -0.283900
     18 O11          6.2390     1.7840     0.8060 o          1 IEM      -0.588100
     19 H3           1.4550     0.0130     2.0720 ha         1 IEM       0.171000
     20 H4           3.8870    -0.9930     1.6720 h1         1 IEM       0.014700
     21 H5           4.1080     1.3220    -0.2780 h1         1 IEM       0.117700
     22 H6           3.3270    -1.5750    -0.7670 h2         1 IEM       0.030700
     23 H71          3.3450    -2.3420    -2.8560 h1         1 IEM       0.047200
     24 H72          2.3020    -0.9920    -3.3200 h1         1 IEM       0.047200
     25 H8           5.0310    -1.5530    -4.5330 hc         1 IEM       0.043700
     26 H91          3.7660    -2.3060    -6.5110 hc         1 IEM       0.034700
     27 H92          3.3690    -3.3030    -5.1050 hc         1 IEM       0.034700
     28 H93          2.2450    -2.0480    -5.6460 hc         1 IEM       0.034700
     29 H101         4.1580     0.0850    -6.2590 hc         1 IEM       0.034700
     30 H102         2.8130     0.4230    -5.1610 hc         1 IEM       0.034700
     31 H103         4.4720     0.7930    -4.6690 hc         1 IEM       0.034700
     32 H121         8.5860     0.9920     0.9080 hc         1 IEM       0.051367
     33 H122         8.0860    -0.7040     0.8610 hc         1 IEM       0.051367
     34 H123         8.3350     0.1860    -0.6470 hc         1 IEM       0.051367
     35 HN5          5.8380    -1.0680    -0.3780 hn         1 IEM       0.305500
     36 HO4          3.9210     0.6460     3.1300 ho         1 IEM       0.388000
     37 C11          6.5440     0.6880     0.3880 c          1 IEM       0.652100
@<TRIPOS>BOND
     1     1     2 1
     2     1    14 1
     3     1    15 1
     4     2     3 2
     5     2    17 1
     6     3     4 1
     7     3    19 1
     8     4     5 1
     9     4    16 1
    10     4    20 1
    11     5     6 1
    12     5    13 1
    13     5    21 1
    14     6     7 1
    15     6    17 1
    16     6    22 1
    17     7     8 1
    18     8     9 1
    19     8    23 1
    20     8    24 1
    21     9    10 1
    22     9    11 1
    23     9    25 1
    24    10    26 1
    25    10    27 1
    26    10    28 1
    27    11    29 1
    28    11    30 1
    29    11    31 1
    30    37    12 1
    31    37    13 1
    32    37    18 2
    33    12    32 1
    34    12    33 1
    35    12    34 1
    36    13    35 1
    37    16    36 1
@<TRIPOS>SUBSTRUCTURE
     1 IEM         1 TEMP              0 ****  ****    0 ROOT
