@<TRIPOS>MOLECULE
molecule
   38    40     1     0     0
SMALL
bcc


@<TRIPOS>ATOM
      1 N01          0.0000     0.0000     0.0000 nz         1 IEO      -0.729400
      2 C01          1.3480     0.0000     0.0000 c          1 IEO       0.522700
      3 O01          1.9560     0.0000     1.0530 o          1 IEO      -0.473100
      4 C02          2.0830     0.0000    -1.2750 ca         1 IEO      -0.237600
      5 C03          1.3880    -0.0000    -2.4860 ca         1 IEO      -0.062000
      6 C04          2.0690    -0.0010    -3.6850 ca         1 IEO      -0.250000
      7 C05          3.4570    -0.0000    -3.7050 ca         1 IEO       0.282100
      8 O1           4.1190    -0.0010    -4.8900 os         1 IEO      -0.232900
      9 C06          3.3290     0.1200    -6.0750 c3         1 IEO       0.098100
     10 C07          4.1830     0.7100    -7.2000 c3         1 IEO      -0.344900
     11 C08          3.3500     0.7810    -8.4820 c3         1 IEO       0.193800
     12 N02          2.8930    -0.5670    -8.8450 n7         1 IEO      -0.978200
     13 C09          2.0320    -1.1350    -7.8000 c3         1 IEO       0.193800
     14 C10          2.8260    -1.2630    -6.4970 c3         1 IEO      -0.344900
     15 C11          4.1710    -0.0000    -2.5040 ca         1 IEO      -0.140800
     16 C12          5.6080    -0.0000    -2.1690 cc         1 IEO       0.023100
     17 C13          5.6840     0.0010    -0.8080 cd         1 IEO      -0.093100
     18 N03          4.4320     0.0010    -0.2800 na         1 IEO      -0.133400
     19 C14          3.4900     0.0060    -1.2800 ca         1 IEO       0.071800
     20 C1           6.7040    -0.0020    -3.0900 cg         1 IEO       0.207500
     21 N1           7.5860     0.0010    -3.8050 n1         1 IEO      -0.306800
     22 H011        -0.6420     0.1950     0.7430 hn         1 IEO       0.481467
     23 H012        -0.1580     0.5260    -0.8370 hn         1 IEO       0.481467
     24 H03          0.3560    -0.0250    -2.8140 ha         1 IEO       0.157000
     25 H04          1.7950     0.1650    -4.7200 ha         1 IEO       0.185000
     26 H06          2.4820     0.7690    -5.8870 h1         1 IEO       0.039700
     27 H071         3.6130     0.5700    -8.1110 hc         1 IEO       0.137200
     28 H072         5.1350     0.2390    -7.4140 hc         1 IEO       0.137200
     29 H101         2.3650    -0.9270    -7.4180 hc         1 IEO       0.137200
     30 H102         3.8600    -1.4850    -6.7320 hc         1 IEO       0.137200
     31 H081         2.6420     1.5410    -8.1740 h1         1 IEO       0.114450
     32 H082         3.7350     0.8020    -9.4950 h1         1 IEO       0.114450
     33 H02          2.4770    -0.3140    -9.7200 hn         1 IEO       0.383800
     34 H091         1.1310    -0.6250    -8.1190 h1         1 IEO       0.114450
     35 H092         2.0910    -2.1360    -8.2090 h1         1 IEO       0.114450
     36 H13          6.4030    -0.7320    -0.4640 h4         1 IEO       0.199000
     37 HA           4.4350    -0.5270     0.5700 hn         1 IEO       0.317700
     38 H013        -0.2320     0.9520     0.2040 hn         1 IEO       0.481467
@<TRIPOS>BOND
     1     1     2 1
     2     2     3 2
     3     2     4 1
     4     4     5 ar
     5     4    19 ar
     6     5     6 ar
     7     6     7 ar
     8     7     8 1
     9     7    15 ar
    10     8     9 1
    11     9    10 1
    12     9    14 1
    13    10    11 1
    14    11    12 1
    15    12    13 1
    16    13    14 1
    17    15    16 1
    18    15    19 ar
    19    16    17 2
    20    16    20 1
    21    17    18 1
    22    18    19 1
    23    20    21 3
    24     1    22 1
    25     1    23 1
    26     5    24 1
    27     6    25 1
    28     9    26 1
    29    10    27 1
    30    10    28 1
    31    14    29 1
    32    14    30 1
    33    11    31 1
    34    11    32 1
    35    12    33 1
    36    13    34 1
    37    13    35 1
    38    17    36 1
    39    18    37 1
    40    38     1 1
@<TRIPOS>SUBSTRUCTURE
     1 IEO         1 TEMP              0 ****  ****    0 ROOT
