@<TRIPOS>MOLECULE
IEO
   38    40     1     0     0
SMALL
bcc


@<TRIPOS>ATOM
      1 N01          0.0000     0.0000     0.0000 nz         1 IEO      -0.077400
      2 C01          1.3480     0.0000     0.0000 c          1 IEO       0.423700
      3 O01          1.9560     0.0000     1.0530 o          1 IEO      -0.516100
      4 C02          2.0830     0.0000    -1.2750 ca         1 IEO      -0.245600
      5 C03          1.3880    -0.0000    -2.4860 ca         1 IEO      -0.018000
      6 C04          2.0690    -0.0010    -3.6850 ca         1 IEO      -0.264000
      7 C05          3.4570    -0.0000    -3.7050 ca         1 IEO       0.312100
      8 O1           4.1190    -0.0010    -4.8900 os         1 IEO      -0.217900
      9 C06          3.3290     0.1200    -6.0750 c3         1 IEO       0.095100
     10 C07          4.1830     0.7100    -7.2000 c3         1 IEO      -0.237400
     11 C08          3.3500     0.7810    -8.4820 c3         1 IEO       0.385800
     12 N02          2.8930    -0.5670    -8.8450 n7         1 IEO      -0.843200
     13 C09          2.0320    -1.1350    -7.8000 c3         1 IEO       0.385800
     14 C10          2.8260    -1.2630    -6.4970 c3         1 IEO      -0.237400
     15 C11          4.1710    -0.0000    -2.5040 ca         1 IEO      -0.160800
     16 C12          5.6080    -0.0000    -2.1690 cc         1 IEO       0.090100
     17 C13          5.6840     0.0010    -0.8080 cd         1 IEO      -0.254100
     18 N03          4.4320     0.0010    -0.2800 na         1 IEO       0.388600
     19 C14          3.4900     0.0060    -1.2800 ca         1 IEO      -0.104200
     20 C1           6.7040    -0.0020    -3.0900 cg         1 IEO       0.189500
     21 N1           7.5860     0.0010    -3.8050 n1         1 IEO      -0.321800
     22 H011        -0.6420     0.1950     0.7430 hn         1 IEO       0.314133
     23 H012        -0.1580     0.5260    -0.8370 hn         1 IEO       0.314133
     24 H03          0.3560    -0.0250    -2.8140 ha         1 IEO       0.125000
     25 H04          1.7950     0.1650    -4.7200 ha         1 IEO       0.173000
     26 H06          2.4820     0.7690    -5.8870 h1         1 IEO       0.025700
     27 H071         3.6130     0.5700    -8.1110 hc         1 IEO       0.022700
     28 H072         5.1350     0.2390    -7.4140 hc         1 IEO       0.022700
     29 H101         2.3650    -0.9270    -7.4180 hc         1 IEO       0.022700
     30 H102         3.8600    -1.4850    -6.7320 hc         1 IEO       0.022700
     31 H081         2.6420     1.5410    -8.1740 h1         1 IEO       0.060950
     32 H082         3.7350     0.8020    -9.4950 h1         1 IEO       0.060950
     33 H02          2.4770    -0.3140    -9.7200 hn         1 IEO       0.323800
     34 H091         1.1310    -0.6250    -8.1190 h1         1 IEO       0.060950
     35 H092         2.0910    -2.1360    -8.2090 h1         1 IEO       0.060950
     36 H13          6.4030    -0.7320    -0.4640 h4         1 IEO       0.164000
     37 HA           4.4350    -0.5270     0.5700 hn         1 IEO       0.141700
     38 H013        -0.2320     0.9520     0.2040 hn         1 IEO       0.314133
@<TRIPOS>BOND
     1     1     2 1   
     2     1    22 1   
     3     1    23 1   
     4     1    38 1   
     5     2     3 2   
     6     2     4 1   
     7     4     5 ar  
     8     4    19 ar  
     9     5     6 ar  
    10     5    24 1   
    11     6     7 ar  
    12     6    25 1   
    13     7     8 1   
    14     7    15 ar  
    15     8     9 1   
    16     9    10 1   
    17     9    14 1   
    18     9    26 1   
    19    10    11 1   
    20    10    27 1   
    21    10    28 1   
    22    11    12 1   
    23    11    31 1   
    24    11    32 1   
    25    12    13 1   
    26    12    33 1   
    27    13    14 1   
    28    13    34 1   
    29    13    35 1   
    30    14    29 1   
    31    14    30 1   
    32    15    16 1   
    33    15    19 ar  
    34    16    17 2   
    35    16    20 1   
    36    17    18 1   
    37    17    36 1   
    38    18    19 1   
    39    18    37 1   
    40    20    21 3   
@<TRIPOS>SUBSTRUCTURE
     1 IEO         1 TEMP              0 ****  ****    0 ROOT
