@<TRIPOS>MOLECULE
molecule
   80    82     1     0     0
SMALL
bcc


@<TRIPOS>ATOM
      1 C01          0.0000     0.0000     0.0000 c3         1 IES      -0.106100
      2 C05          1.5300     0.0000     0.0000 c3         1 IES       0.161100
      3 C07          2.0390     0.0000     1.4430 c3         1 IES      -0.106100
      4 O11          2.0140    -1.1860    -0.6840 os         1 IES      -0.438900
      5 C12          3.1970    -1.0850    -1.3180 c          1 IES       0.746100
      6 O13          3.8090    -0.0350    -1.3000 o          1 IES      -0.616000
      7 N14          3.7040    -2.1490    -1.9720 ns         1 IES      -0.566900
      8 C16          4.9920    -2.0390    -2.6630 c3         1 IES       0.189000
      9 C18          5.0510    -3.0740    -3.7850 c3         1 IES      -0.110400
     10 C21          6.4720    -3.0950    -4.3640 c3         1 IES       0.122700
     11 C23          6.5380    -4.0730    -5.5400 c3         1 IES      -0.098100
     12 N27          7.3840    -3.5350    -3.2990 n          1 IES      -0.385000
     13 C28          8.3420    -4.4490    -3.5520 c          1 IES       0.669100
     14 C29          8.9720    -5.2130    -2.4150 c3         1 IES      -0.177100
     15 O33          8.6970    -4.6560    -4.6920 o          1 IES      -0.589100
     16 C34          7.2410    -2.9880    -2.0170 ca         1 IES       0.082600
     17 C35          8.2570    -3.1780    -1.0850 ca         1 IES      -0.211000
     18 C37          8.1410    -2.6540     0.1850 ca         1 IES      -0.087000
     19 C39          7.0010    -1.9330     0.5330 cp         1 IES      -0.060000
     20 C40          5.9860    -1.7430    -0.4020 ca         1 IES      -0.071000
     21 C42          6.1060    -2.2670    -1.6750 ca         1 IES      -0.144300
     22 C43          6.8670    -1.3680     1.8980 cp         1 IES      -0.047000
     23 C44          7.8830    -1.5580     2.8350 ca         1 IES      -0.104500
     24 C46          7.7580    -1.0330     4.1030 ca         1 IES      -0.145000
     25 C48          6.6200    -0.3130     4.4480 ca         1 IES       0.055600
     26 N49          6.4950     0.2190     5.7360 ns         1 IES      -0.479100
     27 C51          7.5940     0.6080     6.4130 c          1 IES       0.657100
     28 O52          8.6790     0.5890     5.8720 o          1 IES      -0.592100
     29 C53          7.4720     1.0680     7.8440 c3         1 IES      -0.158400
     30 C56          8.8550     1.4500     8.3750 c3         1 IES      -0.067400
     31 C59          8.7320     1.9170     9.8270 c3         1 IES      -0.083400
     32 C62         10.1150     2.3000    10.3590 c3         1 IES      -0.083400
     33 C65          9.9920     2.7650    11.8100 c3         1 IES      -0.065400
     34 C68         11.3760     3.1480    12.3420 c3         1 IES      -0.148400
     35 C71         11.2550     3.6080    13.7720 c          1 IES       0.668100
     36 O72         10.1700     3.6270    14.3130 o          1 IES      -0.575100
     37 N73         12.3520     3.9970    14.4500 ns         1 IES      -0.475400
     38 O75         12.2390     4.4280    15.7940 oh         1 IES      -0.363100
     39 C77          5.6070    -0.1220     3.5170 ca         1 IES      -0.145000
     40 C79          5.7300    -0.6410     2.2460 ca         1 IES      -0.104500
     41 H011        -0.3610    -0.0700    -1.0190 hc         1 IES       0.048033
     42 H012        -0.3610    -0.8480     0.5700 hc         1 IES       0.048033
     43 H013        -0.3610     0.9170     0.4490 hc         1 IES       0.048033
     44 H05          1.8910     0.8840    -0.5110 h1         1 IES       0.075700
     45 H071         2.3410    -1.0030     1.7190 hc         1 IES       0.048033
     46 H072         1.2500     0.3350     2.1050 hc         1 IES       0.048033
     47 H073         2.8880     0.6680     1.5260 hc         1 IES       0.048033
     48 H14          3.1900    -3.0070    -2.0050 hn         1 IES       0.326500
     49 H16          5.0910    -1.0480    -3.0880 h1         1 IES       0.092700
     50 H181         4.8070    -4.0520    -3.3890 hc         1 IES       0.061200
     51 H182         4.3470    -2.8050    -4.5630 hc         1 IES       0.061200
     52 H21          6.7470    -2.1000    -4.6930 h1         1 IES       0.064700
     53 H231         7.4600    -3.9190    -6.0870 hc         1 IES       0.054033
     54 H232         6.5070    -5.0900    -5.1660 hc         1 IES       0.054033
     55 H233         5.6950    -3.9040    -6.1980 hc         1 IES       0.054033
     56 H291         9.8620    -4.6930    -2.0800 hc         1 IES       0.069367
     57 H292         9.2400    -6.2070    -2.7530 hc         1 IES       0.069367
     58 H293         8.2670    -5.2880    -1.5960 hc         1 IES       0.069367
     59 H35          9.1420    -3.7400    -1.3590 ha         1 IES       0.160000
     60 H37          8.9320    -2.8040     0.9090 ha         1 IES       0.137000
     61 H40          5.1000    -1.1820    -0.1300 ha         1 IES       0.159000
     62 H44          8.7700    -2.1190     2.5660 ha         1 IES       0.138500
     63 H79          4.9390    -0.4910     1.5200 ha         1 IES       0.138500
     64 H46          8.5470    -1.1800     4.8300 ha         1 IES       0.145000
     65 H49          5.5940     0.2770     6.1680 hn         1 IES       0.323500
     66 H77          4.7220     0.4420     3.7890 ha         1 IES       0.145000
     67 H531         6.8160     1.9280     7.8930 hc         1 IES       0.061700
     68 H532         7.0630     0.2660     8.4470 hc         1 IES       0.061700
     69 H561         9.2640     2.2510     7.7720 hc         1 IES       0.058700
     70 H562         9.5110     0.5900     8.3260 hc         1 IES       0.058700
     71 H591         8.3230     1.1160    10.4300 hc         1 IES       0.043200
     72 H592         8.0760     2.7770     9.8750 hc         1 IES       0.043200
     73 H621        10.7720     1.4400    10.3100 hc         1 IES       0.042200
     74 H622        10.5250     3.1010     9.7560 hc         1 IES       0.042200
     75 H651         9.5830     1.9640    12.4130 hc         1 IES       0.061200
     76 H652         9.3360     3.6260    11.8590 hc         1 IES       0.061200
     77 H681        11.7860     3.9480    11.7380 hc         1 IES       0.060200
     78 H682        12.0320     2.2870    12.2940 hc         1 IES       0.060200
     79 H73         13.2480     3.9810    14.0040 hn         1 IES       0.317500
     80 H75         13.0910     4.6640    16.1220 ho         1 IES       0.397000
@<TRIPOS>BOND
     1     1     2 1
     2     2     3 1
     3     2     4 1
     4     4     5 1
     5     5     6 2
     6     5     7 1
     7     7     8 1
     8     8     9 1
     9     8    21 1
    10     9    10 1
    11    10    11 1
    12    10    12 1
    13    12    13 1
    14    12    16 1
    15    13    14 1
    16    13    15 2
    17    16    17 ar
    18    16    21 ar
    19    17    18 ar
    20    18    19 ar
    21    19    20 ar
    22    19    22 1
    23    20    21 ar
    24    22    23 ar
    25    22    40 ar
    26    23    24 ar
    27    24    25 ar
    28    25    26 1
    29    25    39 ar
    30    26    27 1
    31    27    28 2
    32    27    29 1
    33    29    30 1
    34    30    31 1
    35    31    32 1
    36    32    33 1
    37    33    34 1
    38    34    35 1
    39    35    36 2
    40    35    37 1
    41    37    38 1
    42    39    40 ar
    43     1    41 1
    44     1    42 1
    45     1    43 1
    46     2    44 1
    47     3    45 1
    48     3    46 1
    49     3    47 1
    50     7    48 1
    51     8    49 1
    52     9    50 1
    53     9    51 1
    54    10    52 1
    55    11    53 1
    56    11    54 1
    57    11    55 1
    58    14    56 1
    59    14    57 1
    60    14    58 1
    61    17    59 1
    62    18    60 1
    63    20    61 1
    64    23    62 1
    65    40    63 1
    66    24    64 1
    67    26    65 1
    68    39    66 1
    69    29    67 1
    70    29    68 1
    71    30    69 1
    72    30    70 1
    73    31    71 1
    74    31    72 1
    75    32    73 1
    76    32    74 1
    77    33    75 1
    78    33    76 1
    79    34    77 1
    80    34    78 1
    81    37    79 1
    82    38    80 1
@<TRIPOS>SUBSTRUCTURE
     1 IES         1 TEMP              0 ****  ****    0 ROOT
