@<TRIPOS>MOLECULE
molecule
   35    36     1     0     0
SMALL
bcc


@<TRIPOS>ATOM
      1 C1           0.0000     0.0000     0.0000 ca         1 IET      -0.050300
      2 C7          -0.7540    -0.0010    -1.3050 c3         1 IET      -0.070400
      3 C2           1.3830     0.0000     0.0000 ca         1 IET       0.049900
      4 Cl2          2.2500     0.0080    -1.5030 cl         1 IET      -0.105400
      5 C3           2.0740     0.0000     1.1980 ca         1 IET      -0.119500
      6 C4           1.3840    -0.0050     2.3950 ca         1 IET      -0.116000
      7 C5           0.0020    -0.0120     2.3960 ca         1 IET      -0.119500
      8 C6          -0.6910    -0.0120     1.1980 ca         1 IET       0.049900
      9 Cl6         -2.4270    -0.0210     1.1990 cl         1 IET      -0.105400
     10 C8          -1.0170     1.4190    -1.7320 c2         1 IET       0.504900
     11 N1          -1.6570     1.6710    -2.9240 ns         1 IET      -0.461400
     12 C9          -2.1490     0.6500    -3.6530 cs         1 IET       0.589400
     13 N5          -2.8740     0.9020    -4.7610 ns         1 IET      -0.411100
     14 S2          -1.8500    -0.9650    -3.1750 s          1 IET      -0.642400
     15 N3          -0.6420     2.4000    -0.9810 n2         1 IET      -0.822100
     16 C11         -3.4150    -0.1530    -5.4950 ca         1 IET       0.044600
     17 C12         -4.7250    -0.0780    -5.9560 ca         1 IET      -0.116500
     18 C13         -5.2620    -1.1180    -6.6810 ca         1 IET      -0.087000
     19 C14         -4.4910    -2.2490    -6.9520 ca         1 IET      -0.013000
     20 C15         -3.1750    -2.3230    -6.4870 ca         1 IET      -0.087000
     21 C16         -2.6420    -1.2760    -5.7670 ca         1 IET      -0.116500
     22 C17         -5.0470    -3.3330    -7.7060 cg         1 IET       0.237800
     23 N6          -5.4820    -4.1840    -8.3200 n1         1 IET      -0.357800
     24 H71         -1.6940    -0.5240    -1.1780 hc         1 IET       0.123700
     25 H72         -0.1630    -0.4990    -2.0630 hc         1 IET       0.123700
     26 H3           3.1580     0.0000     1.1980 ha         1 IET       0.144000
     27 H4           1.9260    -0.0050     3.3330 ha         1 IET       0.140000
     28 H5          -0.5400    -0.0160     3.3340 ha         1 IET       0.144000
     29 HN1         -1.6650     2.5990    -3.3010 hn         1 IET       0.318500
     30 HN5         -3.0330     1.8470    -5.0510 hn         1 IET       0.324500
     31 HN3         -0.8170     3.3440    -1.2650 hn         1 IET       0.392400
     32 H12         -5.3240     0.8000    -5.7450 ha         1 IET       0.157500
     33 H13         -6.2830    -1.0580    -7.0390 ha         1 IET       0.149500
     34 H15         -2.5740    -3.1990    -6.6970 ha         1 IET       0.149500
     35 H16         -1.6210    -1.3300    -5.4100 ha         1 IET       0.157500
@<TRIPOS>BOND
     1     1     2 1
     2     1     3 ar
     3     1     8 ar
     4     2    10 1
     5     2    24 1
     6     2    25 1
     7     3     4 1
     8     3     5 ar
     9     5     6 ar
    10     5    26 1
    11     6     7 ar
    12     6    27 1
    13     7     8 ar
    14     7    28 1
    15     8     9 1
    16    10    11 1
    17    10    15 2
    18    11    12 1
    19    11    29 1
    20    12    13 1
    21    12    14 2
    22    13    16 1
    23    13    30 1
    24    15    31 1
    25    16    17 ar
    26    16    21 ar
    27    17    18 ar
    28    17    32 1
    29    18    19 ar
    30    18    33 1
    31    19    20 ar
    32    19    22 1
    33    20    21 ar
    34    20    34 1
    35    21    35 1
    36    22    23 3
@<TRIPOS>SUBSTRUCTURE
     1 IET         1 TEMP              0 ****  ****    0 ROOT
