@<TRIPOS>MOLECULE
molecule
   22    22     1     0     0
SMALL
bcc


@<TRIPOS>ATOM
      1 O            0.0000     0.0000     0.0000 o          1 IF7      -0.645500
      2 C2           1.2130     0.0000     0.0000 c          1 IF7       0.696500
      3 C3           1.9240     0.0000     1.3230 c3         1 IF7       0.069100
      4 O3           1.2690    -0.9060     2.2130 oh         1 IF7      -0.569800
      5 C4           3.3780    -0.4360     1.1320 c3         1 IF7       0.139100
      6 O2           3.4270    -1.8290     0.8210 oh         1 IF7      -0.584800
      7 C5           3.9790     0.3730    -0.0240 c3         1 IF7      -0.090700
      8 C6           5.4800     0.0920    -0.1210 c3         1 IF7       0.146400
      9 O1           6.0580     0.9330    -1.1220 oh         1 IF7      -0.612800
     10 C1           3.2940    -0.0490    -1.3240 c3         1 IF7       0.117000
     11 N            1.8440    -0.0060    -1.1750 ns         1 IF7      -0.568900
     12 H3           1.9020     1.0000     1.7400 h1         1 IF7       0.058700
     13 H            1.2880     0.0210    -2.0070 hn         1 IF7       0.329500
     14 HA           0.8890    -0.4240     2.9290 ho         1 IF7       0.409000
     15 H4           3.9370    -0.2400     2.0400 h1         1 IF7       0.037700
     16 H2           3.7210    -2.3100     1.5770 ho         1 IF7       0.410000
     17 H5           3.8120     1.4300     0.1480 hc         1 IF7       0.073700
     18 H61C         5.6360    -0.9460    -0.3870 h1         1 IF7       0.030700
     19 H62C         5.9480     0.2950     0.8350 h1         1 IF7       0.030700
     20 H11C         3.5900     0.6260    -2.1180 h1         1 IF7       0.058200
     21 H12C         3.5960    -1.0580    -1.5750 h1         1 IF7       0.058200
     22 H1           6.9970     0.9290    -1.0320 ho         1 IF7       0.407000
@<TRIPOS>BOND
     1     1     2 2
     2     2     3 1
     3     2    11 1
     4     3     4 1
     5     3     5 1
     6     5     6 1
     7     5     7 1
     8     7     8 1
     9     7    10 1
    10     8     9 1
    11    10    11 1
    12     3    12 1
    13    11    13 1
    14     4    14 1
    15     5    15 1
    16     6    16 1
    17     7    17 1
    18     8    18 1
    19     8    19 1
    20    10    20 1
    21    10    21 1
    22     9    22 1
@<TRIPOS>SUBSTRUCTURE
     1 IF7         1 TEMP              0 ****  ****    0 ROOT
