@<TRIPOS>MOLECULE
molecule
   39    40     1     0     0
SMALL
bcc


@<TRIPOS>ATOM
      1 FAF          0.0000     0.0000     0.0000 f          1 IFA      -0.127900
      2 CAT          1.3520     0.0000     0.0000 ca         1 IFA       0.169900
      3 CAJ          2.0440     0.0000     1.1970 ca         1 IFA      -0.208000
      4 CAS          3.4290     0.0010     1.1960 ca         1 IFA       0.164900
      5 FAE          4.1020     0.0010     2.3670 f          1 IFA      -0.129900
      6 CAH          4.1260     0.0010    -0.0020 ca         1 IFA      -0.182000
      7 CAI          3.4440     0.0010    -1.2000 ca         1 IFA      -0.070000
      8 CAY          2.0510    -0.0050    -1.2070 cp         1 IFA      -0.094000
      9 CAW          1.3130    -0.0110    -2.4940 cp         1 IFA      -0.072000
     10 CAL          1.6390     0.9070    -3.4860 ca         1 IFA      -0.061000
     11 CAK          0.2950    -0.9430    -2.7110 ca         1 IFA      -0.033000
     12 CAU         -0.3930    -0.9540    -3.9060 ca         1 IFA      -0.020100
     13 IAG         -1.9180    -2.3570    -4.2180 i          1 IFA      -0.142900
     14 CAV         -0.0800    -0.0380    -4.9010 ca         1 IFA       0.211100
     15 OAD         -0.7600    -0.0530    -6.0750 oh         1 IFA      -0.470100
     16 CAX          0.9430     0.8970    -4.6950 ca         1 IFA      -0.168600
     17 CAR          1.2830     1.8680    -5.7520 c          1 IFA       0.673700
     18 OAC          0.6750     1.8580    -6.8060 o          1 IFA      -0.569100
     19 NAO          2.2670     2.7670    -5.5520 ns         1 IFA      -0.594900
     20 CAM          2.6050     3.7300    -6.6010 c3         1 IFA       0.124000
     21 CAN          3.7480     4.6280    -6.1220 c3         1 IFA      -0.148400
     22 CAQ          4.0950     5.6190    -7.2030 c          1 IFA       0.633100
     23 OAB          3.4900     5.6100    -8.2490 o          1 IFA      -0.539000
     24 OAP          5.0760     6.5140    -7.0030 os         1 IFA      -0.431900
     25 CAA          5.3560     7.4380    -8.0860 c3         1 IFA       0.139700
     26 HAJ          1.5030     0.0040     2.1350 ha         1 IFA       0.165000
     27 HAH          5.2100     0.0040     0.0030 ha         1 IFA       0.153000
     28 HAI          3.9900    -0.0010    -2.1350 ha         1 IFA       0.147000
     29 HAL          2.4310     1.6270    -3.3200 ha         1 IFA       0.135000
     30 HAK          0.0520    -1.6650    -1.9410 ha         1 IFA       0.155000
     31 HOAD        -1.6820     0.0450    -5.9060 ho         1 IFA       0.433000
     32 HNAO         2.7640     2.7790    -4.6830 hn         1 IFA       0.307500
     33 HAM1         1.7370     4.3390    -6.8250 h1         1 IFA       0.072700
     34 HAM2         2.9130     3.1990    -7.4940 h1         1 IFA       0.072700
     35 HAN1         4.6160     4.0200    -5.8980 hc         1 IFA       0.074200
     36 HAN2         3.4400     5.1600    -5.2300 hc         1 IFA       0.074200
     37 HAA1         6.1620     8.1010    -7.7970 h1         1 IFA       0.051367
     38 HAA2         5.6450     6.8820    -8.9700 h1         1 IFA       0.051367
     39 HAA3         4.4690     8.0220    -8.3010 h1         1 IFA       0.051367
@<TRIPOS>BOND
     1     1     2 1
     2     2     3 ar
     3     2     8 ar
     4     3     4 ar
     5     3    26 1
     6     4     5 1
     7     4     6 ar
     8     6     7 ar
     9     6    27 1
    10     7     8 ar
    11     7    28 1
    12     8     9 1
    13     9    10 ar
    14     9    11 ar
    15    10    16 ar
    16    10    29 1
    17    11    12 ar
    18    11    30 1
    19    12    13 1
    20    12    14 ar
    21    14    16 ar
    22    14    15 1
    23    15    31 1
    24    16    17 1
    25    17    18 2
    26    17    19 1
    27    19    20 1
    28    19    32 1
    29    20    21 1
    30    20    33 1
    31    20    34 1
    32    21    22 1
    33    21    35 1
    34    21    36 1
    35    22    24 1
    36    22    23 2
    37    24    25 1
    38    25    37 1
    39    25    38 1
    40    25    39 1
@<TRIPOS>SUBSTRUCTURE
     1 IFA         1 TEMP              0 ****  ****    0 ROOT
