@<TRIPOS>MOLECULE
molecule
   35    36     1     0     0
SMALL
bcc


@<TRIPOS>ATOM
      1 OAP          0.0000     0.0000     0.0000 o          1 IFB      -0.845800
      2 CAQ          1.2080     0.0000     0.0000 c          1 IFB       0.895600
      3 OAB          1.8790     0.0000     1.1630 o          1 IFB      -0.845800
      4 CAN          1.9620    -0.0060    -1.3050 c3         1 IFB      -0.204400
      5 CAM          0.9660    -0.0110    -2.4680 c3         1 IFB       0.117000
      6 NAO          1.6990    -0.0180    -3.7370 ns         1 IFB      -0.576900
      7 CAR          1.0250    -0.0240    -4.9040 c          1 IFB       0.654700
      8 OAC         -0.1910    -0.0230    -4.9040 o          1 IFB      -0.585100
      9 CAX          1.7620    -0.0290    -6.1820 ca         1 IFB      -0.151600
     10 CAL          3.1570    -0.0290    -6.1850 ca         1 IFB      -0.057000
     11 CAV          1.0640    -0.0410    -7.3970 ca         1 IFB       0.204100
     12 OAD         -0.2930    -0.0470    -7.4010 oh         1 IFB      -0.466100
     13 CAU          1.7610    -0.0460    -8.5980 ca         1 IFB      -0.021100
     14 IAG          0.7170    -0.0630   -10.4130 i          1 IFB      -0.171900
     15 CAK          3.1410    -0.0400    -8.5980 ca         1 IFB      -0.047000
     16 CAW          3.8450    -0.0340    -7.3930 cp         1 IFB      -0.083000
     17 CAY          5.3290    -0.0340    -7.4020 cp         1 IFB      -0.081000
     18 CAT          6.0250    -0.9610    -8.1760 ca         1 IFB       0.164900
     19 FAF          5.3490    -1.8640    -8.9220 f          1 IFB      -0.130900
     20 CAI          6.0320     0.8980    -6.6390 ca         1 IFB      -0.066000
     21 CAH          7.4110     0.8950    -6.6500 ca         1 IFB      -0.180000
     22 CAS          8.0990    -0.0300    -7.4170 ca         1 IFB       0.155900
     23 FAE          9.4500    -0.0280    -7.4250 f          1 IFB      -0.137900
     24 CAJ          7.4070    -0.9550    -8.1810 ca         1 IFB      -0.212000
     25 HAN1         2.5840    -0.8910    -1.3590 hc         1 IFB       0.030700
     26 HAN2         2.5840     0.8780    -1.3670 hc         1 IFB       0.030700
     27 HAM1         0.3430    -0.8950    -2.4060 h1         1 IFB       0.065200
     28 HAM2         0.3440     0.8740    -2.4150 h1         1 IFB       0.065200
     29 HNAO         2.7000    -0.0330    -3.7370 hn         1 IFB       0.298500
     30 HAL          3.7030    -0.0240    -5.2490 ha         1 IFB       0.147000
     31 HOAD        -0.6030    -0.7920    -7.8870 ho         1 IFB       0.426000
     32 HAK          3.6800    -0.0440    -9.5380 ha         1 IFB       0.145000
     33 HAI          5.4950     1.6230    -6.0390 ha         1 IFB       0.155000
     34 HAH          7.9570     1.6190    -6.0580 ha         1 IFB       0.151000
     35 HAJ          7.9490    -1.6760    -8.7810 ha         1 IFB       0.157000
@<TRIPOS>BOND
     1     1     2 1
     2     2     4 1
     3     2     3 1
     4     4     5 1
     5     4    25 1
     6     4    26 1
     7     5     6 1
     8     5    27 1
     9     5    28 1
    10     6     7 1
    11     6    29 1
    12     7     9 1
    13     7     8 2
    14     9    10 ar
    15     9    11 ar
    16    10    16 ar
    17    10    30 1
    18    11    13 ar
    19    11    12 1
    20    12    31 1
    21    13    15 ar
    22    13    14 1
    23    15    16 ar
    24    15    32 1
    25    16    17 1
    26    17    18 ar
    27    17    20 ar
    28    18    24 ar
    29    18    19 1
    30    20    21 ar
    31    20    33 1
    32    21    22 ar
    33    21    34 1
    34    22    23 1
    35    22    24 ar
    36    24    35 1
@<TRIPOS>SUBSTRUCTURE
     1 IFB         1 TEMP              0 ****  ****    0 ROOT
