@<TRIPOS>MOLECULE
IFC
   52    55     1     0     0
SMALL
bcc


@<TRIPOS>ATOM
      1 C1A         0.3190   -1.6240    0.0240 c3        1 IFC     -0.118400
      2 C1Y         1.6540   -1.0020    0.0300 cc        1 IFC      0.320600
      3 C1Q         2.4790   -0.8080    1.1500 cd        1 IFC     -0.244600
      4 N1S         2.2940   -0.5070   -1.1230 nc        1 IFC     -0.651000
      5 C1L         3.4780   -0.0260   -0.7160 cd        1 IFC      0.413400
      6 N2G         3.6490   -0.1860    0.6780 na        1 IFC     -0.155000
      7 C2C         4.7550    0.2070    1.4430 ca        1 IFC      0.024800
      8 C1M         4.6270    0.4360    2.8310 ca        1 IFC     -0.080000
      9 C1P         6.0190    0.3810    0.8370 ca        1 IFC     -0.094000
     10 C2D         7.1060    0.7840    1.6090 ca        1 IFC     -0.149300
     11 C2H         8.4580    1.0050    0.9340 c3        1 IFC      0.688200
     12 F1F         8.6510    2.2870    0.4800 f         1 IFC     -0.231300
     13 F1G         9.5410    0.7660    1.7440 f         1 IFC     -0.231300
     14 F1E         8.6780    0.2180   -0.1690 f         1 IFC     -0.231300
     15 C1O         6.9830    1.0010    2.9820 ca        1 IFC     -0.077000
     16 C2B         5.7390    0.8130    3.5860 ca        1 IFC     -0.124600
     17 C1W         5.5290    1.0500    5.0520 c         1 IFC      0.678700
     18 O1C         4.4950    1.6110    5.4570 o         1 IFC     -0.575100
     19 N1T         6.5350    0.5930    5.8870 n         1 IFC     -0.462100
     20 C2A         6.5700    0.6770    7.2910 ca        1 IFC      0.082600
     21 C1N         7.5640   -0.0690    7.9680 ca        1 IFC     -0.201000
     22 C1K         5.6830    1.4740    8.0370 ca        1 IFC     -0.167000
     23 C1J         5.8000    1.5170    9.4220 ca        1 IFC     -0.084000
     24 C1Z         6.7780    0.8010   10.1100 ca        1 IFC     -0.138300
     25 C1B         6.8490    0.8990   11.5870 c3        1 IFC     -0.054800
     26 C2E         7.6810   -0.0090    9.3660 ca        1 IFC      0.089600
     27 N1U         8.6560   -0.7510   10.0610 n         1 IFC     -0.454100
     28 C1X         9.7940   -1.3280    9.5280 c         1 IFC      0.603600
     29 O1D        10.0930   -1.3130    8.3190 o         1 IFC     -0.578100
     30 C2F        10.6960   -2.0100   10.4790 cc        1 IFC      0.186200
     31 C1I        11.8820   -2.6960   10.3010 cd        1 IFC     -0.270600
     32 C1H        12.2540   -3.1150   11.6510 cd        1 IFC      0.295200
     33 N1R        11.3250   -2.6820   12.5180 nc        1 IFC     -0.330300
     34 O1V        10.3890   -2.0260   11.8660 os        1 IFC     -0.124100
     35 H1A         0.0370   -1.9360    1.0590 hc        1 IFC      0.051033
     36 H1AA       -0.4470   -0.9020   -0.3560 hc        1 IFC      0.051033
     37 H1AB        0.3090   -2.5240   -0.6410 hc        1 IFC      0.051033
     38 H1Q         2.3320   -1.0640    2.1970 h4        1 IFC      0.183000
     39 H1L         4.2310    0.4480   -1.3540 h5        1 IFC      0.066100
     40 H1M         3.6490    0.3400    3.3350 ha        1 IFC      0.173000
     41 H1P         6.1620    0.1970   -0.2420 ha        1 IFC      0.164000
     42 H1O         7.8610    1.3290    3.5620 ha        1 IFC      0.164000
     43 HN1T        7.2860    0.0880    5.4680 hn        1 IFC      0.326500
     44 H1N         8.2590   -0.7000    7.3880 ha        1 IFC      0.168000
     45 H1K         4.8940    2.0640    7.5430 ha        1 IFC      0.174000
     46 H1J         5.0960    2.1450    9.9920 ha        1 IFC      0.139000
     47 H1B         6.0850    1.6170   11.9760 hc        1 IFC      0.046033
     48 H1BA        6.6560   -0.0960   12.0620 hc        1 IFC      0.046033
     49 H1BB        7.8560    1.2620   11.9150 hc        1 IFC      0.046033
     50 HN1U        8.5430   -0.7970   11.0520 hn        1 IFC      0.338500
     51 H1I        12.4250   -2.8890    9.3800 ha        1 IFC      0.195000
     52 H1H        13.1360   -3.6870   11.9460 h4        1 IFC      0.062100
@<TRIPOS>BOND
     1    1    2 1
     2    1   35 1
     3    1   36 1
     4    1   37 1
     5    2    3 2
     6    2    4 1
     7    3    6 1
     8    3   38 1
     9    4    5 2
    10    5    6 1
    11    5   39 1
    12    6    7 1
    13    7    8 ar
    14    7    9 ar
    15    8   16 ar
    16    8   40 1
    17    9   10 ar
    18    9   41 1
    19   10   11 1
    20   10   15 ar
    21   11   12 1
    22   11   13 1
    23   11   14 1
    24   15   16 ar
    25   15   42 1
    26   16   17 1
    27   17   18 2
    28   17   19 1
    29   19   20 1
    30   19   43 1
    31   20   21 ar
    32   20   22 ar
    33   21   26 ar
    34   21   44 1
    35   22   23 ar
    36   22   45 1
    37   23   24 ar
    38   23   46 1
    39   24   25 1
    40   24   26 ar
    41   25   47 1
    42   25   48 1
    43   25   49 1
    44   26   27 1
    45   27   28 1
    46   27   50 1
    47   28   29 2
    48   28   30 1
    49   30   31 2
    50   30   34 1
    51   31   32 1
    52   31   51 1
    53   32   33 2
    54   32   52 1
    55   33   34 1
@<TRIPOS>SUBSTRUCTURE
     1 IFC         1 TEMP              0 ****  ****    0 ROOT
