@<TRIPOS>MOLECULE
molecule
   30    30     1     0     0
SMALL
bcc


@<TRIPOS>ATOM
      1 N1           0.0000     0.0000     0.0000 n7         1 IFG      -0.831200
      2 C2           1.4660     0.0000     0.0000 c3         1 IFG       0.339900
      3 C3           1.9830     0.0000     1.4390 c3         1 IFG       0.126100
      4 C4           1.5030     1.2710     2.1460 c3         1 IFG       0.131100
      5 C5          -0.0230     1.3480     2.0480 c3         1 IFG      -0.071700
      6 C6          -0.5100     2.6650     2.6520 c3         1 IFG       0.144400
      7 C8           2.6750    -2.3930    -2.7330 c3         1 IFG      -0.171100
      8 C9          -0.4360     1.2750     0.5760 c3         1 IFG       0.160800
      9 N2           1.9540    -1.1960    -0.6920 ns         1 IFG      -0.575900
     10 O7           1.9670    -0.1440    -2.6440 o          1 IFG      -0.614100
     11 O3           3.4110    -0.0330     1.4340 oh         1 IFG      -0.592800
     12 O4           2.0810     2.4170     1.5200 oh         1 IFG      -0.592800
     13 O6          -1.9340     2.7380     2.5530 oh         1 IFG      -0.611800
     14 HN1         -0.3340    -0.0730    -0.9410 hn         1 IFG       0.375800
     15 HC2          1.8240     0.8870    -0.5090 h2         1 IFG       0.090700
     16 HC3          1.5980    -0.8690     1.9600 h1         1 IFG       0.046700
     17 HC4          1.7960     1.2360     3.1890 h1         1 IFG       0.031700
     18 HC5         -0.4600     0.5150     2.5860 hc         1 IFG       0.075700
     19 HC61        -0.0680     3.4950     2.1140 h1         1 IFG       0.028700
     20 HC62        -0.2180     2.7140     3.6940 h1         1 IFG       0.028700
     21 HC81         2.7880    -2.1790    -3.7880 hc         1 IFG       0.061033
     22 HC82         3.6340    -2.6830    -2.3190 hc         1 IFG       0.061033
     23 HC83         1.9660    -3.2020    -2.6020 hc         1 IFG       0.061033
     24 HC91         0.0260     2.0910     0.0330 h1         1 IFG       0.056700
     25 HC92        -1.5140     1.3520     0.5020 h1         1 IFG       0.056700
     26 HN2          2.1070    -2.0430    -0.1800 hn         1 IFG       0.313500
     27 HO3          3.7150    -0.5870     2.1330 ho         1 IFG       0.399000
     28 HO4          2.7650     2.7630     2.0680 ho         1 IFG       0.407000
     29 HO6         -2.2550     3.4160     3.1250 ho         1 IFG       0.404000
     30 C7           2.1740    -1.1640    -2.0210 c          1 IFG       0.661100
@<TRIPOS>BOND
     1     1     2 1
     2     1     8 1
     3     1    14 1
     4     2     3 1
     5     2     9 1
     6     2    15 1
     7     3     4 1
     8     3    11 1
     9     3    16 1
    10     4     5 1
    11     4    12 1
    12     4    17 1
    13     5     6 1
    14     5     8 1
    15     5    18 1
    16     6    13 1
    17     6    19 1
    18     6    20 1
    19    30     7 1
    20    30     9 1
    21    30    10 2
    22     7    21 1
    23     7    22 1
    24     7    23 1
    25     8    24 1
    26     8    25 1
    27     9    26 1
    28    11    27 1
    29    12    28 1
    30    13    29 1
@<TRIPOS>SUBSTRUCTURE
     1 IFG         1 TEMP              0 ****  ****    0 ROOT
