@<TRIPOS>MOLECULE
molecule
   22    22     1     0     0
SMALL
bcc


@<TRIPOS>ATOM
      1 O4           0.0000     0.0000     0.0000 oh         1 IFL      -0.605800
      2 C4           1.4290     0.0000     0.0000 c3         1 IFL       0.142100
      3 C3           1.9440     0.0000     1.4400 c3         1 IFL       0.064100
      4 O3           1.6930     1.2750     2.0330 oh         1 IFL      -0.584800
      5 C2           3.4200    -0.2760     1.4580 c          1 IFL       0.683500
      6 N            4.0810    -0.8110     0.4310 ns         1 IFL      -0.576900
      7 C7           3.4690    -1.1500    -0.8470 c3         1 IFL       0.109000
      8 C5           1.9510    -1.2590    -0.7020 c3         1 IFL      -0.085700
      9 C6           1.3100    -1.3800    -2.0860 c3         1 IFL       0.148400
     10 O6           1.8030    -2.5500    -2.7400 oh         1 IFL      -0.616800
     11 O2           4.0440     0.0020     2.4600 o          1 IFL      -0.641500
     12 H4          -0.3140     0.8820    -0.1140 ho         1 IFL       0.415000
     13 HA           1.7970     0.8790    -0.5150 h1         1 IFL       0.055700
     14 H3           1.4300    -0.7700     2.0020 h1         1 IFL       0.073700
     15 HB           1.3350     1.1550     2.8970 ho         1 IFL       0.419000
     16 H            5.0590    -0.9920     0.5450 hn         1 IFL       0.330500
     17 H7C1         3.7030    -0.3770    -1.5690 h1         1 IFL       0.055700
     18 H7C2         3.8630    -2.0980    -1.1910 h1         1 IFL       0.055700
     19 H5           1.7080    -2.1310    -0.1070 hc         1 IFL       0.081700
     20 H6C1         1.5560    -0.5050    -2.6760 h1         1 IFL       0.034700
     21 H6C2         0.2340    -1.4530    -1.9800 h1         1 IFL       0.034700
     22 H6           1.2680    -2.7390    -3.4930 ho         1 IFL       0.409000
@<TRIPOS>BOND
     1     1     2 1
     2     1    12 1
     3     2     3 1
     4     2     8 1
     5     2    13 1
     6     3     4 1
     7     3     5 1
     8     3    14 1
     9     4    15 1
    10     5     6 1
    11     5    11 2
    12     6     7 1
    13     6    16 1
    14     7     8 1
    15     7    17 1
    16     7    18 1
    17     8     9 1
    18     8    19 1
    19     9    10 1
    20     9    20 1
    21     9    21 1
    22    10    22 1
@<TRIPOS>SUBSTRUCTURE
     1 IFL         1 TEMP              0 ****  ****    0 ROOT
