@<TRIPOS>MOLECULE
molecule
   23    23     1     0     0
SMALL
bcc


@<TRIPOS>ATOM
      1 O4           0.0000     0.0000     0.0000 oh         1 IFM      -0.604800
      2 C4           1.4290     0.0000     0.0000 c3         1 IFM       0.148100
      3 C3           1.9420     0.0000     1.4430 c3         1 IFM       0.132100
      4 O3           1.5550     1.2130     2.0900 oh         1 IFM      -0.610800
      5 C2           3.4660    -0.1130     1.4360 c3         1 IFM       0.126800
      6 N            3.8690    -1.3720     0.8020 n7         1 IFM      -0.801200
      7 C1           3.4710    -1.2980    -0.6070 c3         1 IFM       0.152800
      8 C5           1.9470    -1.2510    -0.7120 c3         1 IFM      -0.067700
      9 C6           1.5370    -1.2090    -2.1850 c3         1 IFM       0.144400
     10 O6           2.0210    -2.3770    -2.8500 oh         1 IFM      -0.612800
     11 H4          -0.3140     0.8680    -0.1930 ho         1 IFM       0.408000
     12 HA           1.7950     0.8820    -0.5120 h1         1 IFM       0.040700
     13 H3           1.5220    -0.8460     1.9730 h1         1 IFM       0.061700
     14 HB           1.2280     1.0190     2.9530 ho         1 IFM       0.409000
     15 H2C1         3.8850     0.7180     0.8810 h1         1 IFM       0.040200
     16 H2C2         3.8320    -0.0910     2.4560 h1         1 IFM       0.040200
     17 H            4.8630    -1.4730     0.8630 hn         1 IFM       0.358800
     18 H1C1         3.8880    -0.4030    -1.0520 h1         1 IFM       0.044200
     19 H1C2         3.8390    -2.1720    -1.1300 h1         1 IFM       0.044200
     20 H5           1.5270    -2.1320    -0.2410 hc         1 IFM       0.089700
     21 H6C1         0.4560    -1.1740    -2.2590 h1         1 IFM       0.026700
     22 H6C2         1.9580    -0.3270    -2.6520 h1         1 IFM       0.026700
     23 H6           1.6040    -2.4560    -3.6910 ho         1 IFM       0.404000
@<TRIPOS>BOND
     1     1     2 1
     2     1    11 1
     3     2     3 1
     4     2     8 1
     5     2    12 1
     6     3     4 1
     7     3     5 1
     8     3    13 1
     9     4    14 1
    10     5     6 1
    11     5    15 1
    12     5    16 1
    13     6     7 1
    14     6    17 1
    15     7     8 1
    16     7    18 1
    17     7    19 1
    18     8     9 1
    19     8    20 1
    20     9    10 1
    21     9    21 1
    22     9    22 1
    23    10    23 1
@<TRIPOS>SUBSTRUCTURE
     1 IFM         1 TEMP              0 ****  ****    0 ROOT
