@<TRIPOS>MOLECULE
IFP
   16    16     1     0     0
SMALL
bcc


@<TRIPOS>ATOM
      1 N1A          0.0000     0.0000     0.0000 nc         1 IFP      -0.602000
      2 C2A          1.3270     0.0000     0.0000 cc         1 IFP       0.505300
      3 CM2          2.0290     0.0050    -1.3330 c3         1 IFP       0.560600
      4 N3A          2.0640     0.0000     1.0750 nd         1 IFP      -0.572000
      5 C4A          1.5070    -0.0040     2.3070 cd         1 IFP       0.565600
      6 N4A          2.2490    -0.0040     3.3900 n2         1 IFP      -0.588100
      7 C5A          0.0220    -0.0100     2.3880 cd         1 IFP      -0.372200
      8 C6A         -0.7030    -0.0090     1.1080 cd         1 IFP       0.559500
      9 C7A         -0.6300    -0.0130     3.5780 c2         1 IFP       0.009000
     10 F1           1.6670    -1.1370    -2.0550 f          1 IFP      -0.198300
     11 F2           3.4130     0.0090    -1.1300 f          1 IFP      -0.198300
     12 F3           1.6600     1.1460    -2.0510 f          1 IFP      -0.198300
     13 HN4          3.2470    -0.0010     3.3140 hn         1 IFP       0.338400
     14 H6A1        -1.7860    -0.0110     1.0810 h4         1 IFP      -0.000200
     15 H7A1        -1.7130    -0.0170     3.6030 ha         1 IFP       0.096500
     16 H7A2        -0.0670    -0.0120     4.5040 ha         1 IFP       0.096500
@<TRIPOS>BOND
     1     1     2 1   
     2     1     8 2   
     3     2     3 1   
     4     2     4 2   
     5     3    10 1   
     6     3    11 1   
     7     3    12 1   
     8     4     5 1   
     9     5     6 2   
    10     5     7 1   
    11     6    13 1   
    12     7     8 1   
    13     7     9 2   
    14     8    14 1   
    15     9    15 1   
    16     9    16 1   
@<TRIPOS>SUBSTRUCTURE
     1 IFP         1 TEMP              0 ****  ****    0 ROOT
