@<TRIPOS>MOLECULE
molecule
   39    39     1     0     0
SMALL
bcc


@<TRIPOS>ATOM
      1 C1           0.0000     0.0000     0.0000 ca         1 IFS      -0.275500
      2 O1          -1.0220    -1.3770    -2.0820 o          1 IFS      -0.819300
      3 P1          -0.9070     0.0070    -1.5710 py         1 IFS       1.494600
      4 S1           2.5750     1.7040    -1.7490 sh         1 IFS      -0.379900
      5 C2           1.3820     0.0000     0.0000 ca         1 IFS      -0.003300
      6 C3           2.0730     0.0000     1.1980 ca         1 IFS      -0.133000
      7 C4           1.3810    -0.0010     2.3940 ca         1 IFS      -0.088000
      8 C5          -0.0010    -0.0020     2.3940 ca         1 IFS      -0.141000
      9 C6          -0.6920    -0.0020     1.1980 ca         1 IFS      -0.053000
     10 C7           2.1350     0.0020    -1.3050 c3         1 IFS       0.067000
     11 C101         0.5960     0.3900    -4.8940 c3         1 IFS      -0.108600
     12 C102        -3.9080     2.0540    -2.5390 c3         1 IFS      -0.108600
     13 O21         -2.3790     0.6190    -1.3390 os         1 IFS      -0.599200
     14 O22         -0.1140     0.9100    -2.6430 os         1 IFS      -0.599200
     15 C81         -0.4980     1.0030    -4.0170 c3         1 IFS       0.212100
     16 C82         -3.3860     0.6280    -2.3510 c3         1 IFS       0.212100
     17 C91         -0.6900     2.4730    -4.3950 c3         1 IFS      -0.108600
     18 C92         -4.5390    -0.2860    -1.9320 c3         1 IFS      -0.108600
     19 HS1          3.8890     1.8610    -1.6540 hs         1 IFS       0.196800
     20 H3           3.1560     0.0000     1.1990 ha         1 IFS       0.131000
     21 H4           1.9230    -0.0000     3.3330 ha         1 IFS       0.132000
     22 H5          -0.5430    -0.0030     3.3320 ha         1 IFS       0.134000
     23 H6          -1.7750    -0.0030     1.1970 ha         1 IFS       0.141000
     24 H7           1.5120    -0.4250    -2.0820 h1         1 IFS       0.082700
     25 H7A          3.0370    -0.5890    -1.2020 h1         1 IFS       0.082700
     26 H101         0.3360     0.5200    -5.9380 hc         1 IFS       0.048200
     27 H10A         1.5390     0.8840    -4.6930 hc         1 IFS       0.048200
     28 H10B         0.6860    -0.6660    -4.6730 hc         1 IFS       0.048200
     29 H102        -4.1880     2.2020    -3.5750 hc         1 IFS       0.048200
     30 H10C        -4.7730     2.2080    -1.9060 hc         1 IFS       0.048200
     31 H10D        -3.1330     2.7610    -2.2700 hc         1 IFS       0.048200
     32 H81         -1.4260     0.4670    -4.1700 h1         1 IFS       0.030700
     33 H82         -2.9640     0.2720    -3.2830 h1         1 IFS       0.030700
     34 H91         -0.9190     3.0470    -3.5050 hc         1 IFS       0.048200
     35 H91A        -1.5070     2.5610    -5.1010 hc         1 IFS       0.048200
     36 H91B         0.2190     2.8520    -4.8450 hc         1 IFS       0.048200
     37 H92         -4.8930     0.0070    -0.9510 hc         1 IFS       0.048200
     38 H92A        -4.1940    -1.3120    -1.9000 hc         1 IFS       0.048200
     39 H92B        -5.3470    -0.1990    -2.6480 hc         1 IFS       0.048200
@<TRIPOS>BOND
     1     3     1 1
     2     1     5 ar
     3     1     9 ar
     4     2     3 2
     5    13     3 1
     6     3    14 1
     7     4    10 1
     8     4    19 1
     9    10     5 1
    10     5     6 ar
    11     6     7 ar
    12     6    20 1
    13     8     7 ar
    14     7    21 1
    15     9     8 ar
    16     8    22 1
    17     9    23 1
    18    10    24 1
    19    10    25 1
    20    11    15 1
    21    11    26 1
    22    11    27 1
    23    11    28 1
    24    12    16 1
    25    12    29 1
    26    12    30 1
    27    12    31 1
    28    16    13 1
    29    14    15 1
    30    15    17 1
    31    15    32 1
    32    18    16 1
    33    16    33 1
    34    17    34 1
    35    17    35 1
    36    17    36 1
    37    18    37 1
    38    18    38 1
    39    18    39 1
@<TRIPOS>SUBSTRUCTURE
     1 IFS         1 TEMP              0 ****  ****    0 ROOT
