@<TRIPOS>MOLECULE
IFS
   39    39     1     0     0
SMALL
bcc


@<TRIPOS>ATOM
      1 C1          0.0130    0.3060   -0.4950 ca        1 IFS     -0.422500
      2 O1         -0.8600   -0.8640   -2.7230 o         1 IFS     -0.868300
      3 P1         -0.9130    0.2920   -1.8270 py        1 IFS      1.621600
      4 S1          3.0780   -0.5750   -2.2270 sh        1 IFS     -0.342900
      5 C2          1.1810   -0.4410   -0.2900 ca        1 IFS      0.039700
      6 C3          1.8490   -0.3450    0.9440 ca        1 IFS     -0.170000
      7 C4          1.3840    0.4930    1.9510 ca        1 IFS     -0.063000
      8 C5          0.2340    1.2570    1.7420 ca        1 IFS     -0.152000
      9 C6         -0.4350    1.1550    0.5300 ca        1 IFS     -0.036000
     10 C7          1.7900   -1.3510   -1.3000 c3        1 IFS     -0.007000
     11 C101        1.2530    2.1430   -4.0200 c3        1 IFS     -0.110850
     12 C102       -4.3330    1.2820   -2.5530 c3        1 IFS     -0.110850
     13 O21        -2.4150    0.5720   -1.3140 os        1 IFS     -0.600200
     14 O22        -0.6260    1.6710   -2.6070 os        1 IFS     -0.600200
     15 C81        -0.1730    1.6190   -3.9510 c3        1 IFS      0.181600
     16 C82        -3.4950    0.0960   -2.1000 c3        1 IFS      0.181600
     17 C91        -1.1000    2.4800   -4.7950 c3        1 IFS     -0.110850
     18 C92        -4.3300   -0.8520   -1.2530 c3        1 IFS     -0.110850
     19 HS1         3.8880   -0.2280   -1.2420 hs        1 IFS      0.193800
     20 H3          2.7560   -0.9460    1.1150 ha        1 IFS      0.137000
     21 H4          1.9220    0.5540    2.9100 ha        1 IFS      0.138000
     22 H5         -0.1390    1.9290    2.5300 ha        1 IFS      0.144000
     23 H6         -1.3530    1.7460    0.3540 ha        1 IFS      0.162000
     24 H7          1.0230   -1.6510   -2.0740 h1        1 IFS      0.117200
     25 H7A         2.1630   -2.2800   -0.8030 h1        1 IFS      0.117200
     26 H101        1.9580    1.4440   -3.5040 hc        1 IFS      0.044283
     27 H10A        1.5600    2.2390   -5.0880 hc        1 IFS      0.044283
     28 H10B        1.3190    3.1430   -3.5290 hc        1 IFS      0.044283
     29 H102       -4.7100    1.8460   -1.6670 hc        1 IFS      0.044283
     30 H10C       -5.1990    0.9170   -3.1520 hc        1 IFS      0.044283
     31 H10D       -3.7240    1.9780   -3.1790 hc        1 IFS      0.044283
     32 H81        -0.2110    0.5470   -4.3090 h1        1 IFS      0.069700
     33 H82        -3.0790   -0.4560   -2.9950 h1        1 IFS      0.069700
     34 H91        -0.7510    2.4730   -5.8550 hc        1 IFS      0.044283
     35 H91A       -1.1030    3.5290   -4.4150 hc        1 IFS      0.044283
     36 H91B       -2.1440    2.0860   -4.7540 hc        1 IFS      0.044283
     37 H92        -3.7370   -1.7550   -0.9760 hc        1 IFS      0.044283
     38 H92A       -5.2280   -1.1730   -1.8330 hc        1 IFS      0.044283
     39 H92B       -4.6610   -0.3420   -0.3180 hc        1 IFS      0.044283
@<TRIPOS>BOND
     1    1    3 1   
     2    1    5 ar  
     3    1    9 ar  
     4    2    3 2   
     5    3   13 1   
     6    3   14 1   
     7    4   10 1   
     8    4   19 1   
     9    5    6 ar  
    10    5   10 1   
    11    6    7 ar  
    12    6   20 1   
    13    7    8 ar  
    14    7   21 1   
    15    8    9 ar  
    16    8   22 1   
    17    9   23 1   
    18   10   24 1   
    19   10   25 1   
    20   11   15 1   
    21   11   26 1   
    22   11   27 1   
    23   11   28 1   
    24   12   16 1   
    25   12   29 1   
    26   12   30 1   
    27   12   31 1   
    28   13   16 1   
    29   14   15 1   
    30   15   17 1   
    31   15   32 1   
    32   16   18 1   
    33   16   33 1   
    34   17   34 1   
    35   17   35 1   
    36   17   36 1   
    37   18   37 1   
    38   18   38 1   
    39   18   39 1   
@<TRIPOS>SUBSTRUCTURE
     1 IFS         1 TEMP              0 ****  ****    0 ROOT
