@<TRIPOS>MOLECULE
molecule
   24    24     1     0     0
SMALL
bcc


@<TRIPOS>ATOM
      1 O4           0.0000     0.0000     0.0000 o          1 IG2      -0.909500
      2 P6           1.4800     0.0000     0.0000 p5         1 IG2       1.180900
      3 O6           2.0170     0.0000     1.5170 o          1 IG2      -0.909500
      4 O5           2.0160    -1.3150    -0.7590 o          1 IG2      -0.909500
      5 O3           2.0170     1.3140    -0.7600 os         1 IG2      -0.579200
      6 C1           1.6290     1.6570    -2.0920 c3         1 IG2       0.208400
      7 C2           2.3190     2.9580    -2.5050 c3         1 IG2       0.145100
      8 O2           1.8460     4.0290    -1.6860 oh         1 IG2      -0.594800
      9 C3           2.0030     3.2590    -3.9710 c3         1 IG2       0.215400
     10 O1           0.5850     3.2810    -4.1580 oh         1 IG2      -0.559800
     11 C4           2.5790     4.6000    -4.3450 cc         1 IG2      -0.236900
     12 N1           3.7910     4.8310    -4.9370 na         1 IG2      -0.300900
     13 C6           3.9110     6.1670    -5.0930 cc         1 IG2       0.352400
     14 N3           2.8360     6.7420    -4.6260 nd         1 IG2      -0.720000
     15 C5           1.9980     5.8020    -4.1650 cd         1 IG2       0.337200
     16 H3           0.5540     1.7900    -2.1310 h1         1 IG2       0.025200
     17 H4           1.9190     0.8630    -2.7690 h1         1 IG2       0.025200
     18 H5           3.3900     2.8540    -2.3810 h1         1 IG2       0.029700
     19 H6           2.5000     4.2440    -1.0410 ho         1 IG2       0.400000
     20 H7           2.4380     2.4910    -4.6000 h1         1 IG2       0.027700
     21 H8           0.3770     2.9550    -5.0180 ho         1 IG2       0.380000
     22 H9           4.4620     4.1390    -5.2040 hn         1 IG2       0.289700
     23 H10          4.7600     6.6770    -5.5320 h5         1 IG2       0.042100
     24 H12          1.0270     5.9790    -3.7190 h4         1 IG2       0.061100
@<TRIPOS>BOND
     1     1     2 1
     2     4     2 1
     3     3     2 1
     4     2     5 1
     5     5     6 1
     6     6     7 1
     7    10     9 1
     8     7     9 1
     9     7     8 1
    10     9    11 1
    11    11    12 1
    12    11    15 2
    13    12    13 1
    14    15    14 1
    15    13    14 2
    16     6    16 1
    17     6    17 1
    18     7    18 1
    19     8    19 1
    20     9    20 1
    21    10    21 1
    22    12    22 1
    23    13    23 1
    24    15    24 1
@<TRIPOS>SUBSTRUCTURE
     1 IG2         1 TEMP              0 ****  ****    0 ROOT
