@<TRIPOS>MOLECULE
IG2
   24    24     1     0     0
SMALL
bcc


@<TRIPOS>ATOM
      1 O4          2.4890   -0.8430   -1.3960 o         1 IG2     -0.845000
      2 P6          2.5100    0.1950   -0.3400 p5        1 IG2      1.432800
      3 O6          2.1740   -0.0070    1.0820 o         1 IG2     -0.845000
      4 O5          4.0100    0.8280   -0.4870 oh        1 IG2     -0.782400
      5 O3          1.6390    1.4870   -0.8820 os        1 IG2     -0.593200
      6 C1          1.5710    1.6900   -2.2630 c3        1 IG2      0.149400
      7 C2          1.8970    3.1590   -2.5870 c3        1 IG2      0.100100
      8 O2          1.1670    4.0340   -1.7320 oh        1 IG2     -0.626800
      9 C3          1.4950    3.4880   -4.0440 c3        1 IG2      0.150800
     10 O1          0.0910    3.7320   -4.1000 oh        1 IG2     -0.628800
     11 C4          2.2700    4.6260   -4.5990 cc        1 IG2     -0.177700
     12 N1          2.8210    4.6600   -5.8690 n1        1 IG2     -0.223000
     13 C6          3.3910    5.9120   -5.9460 cd        1 IG2      0.126900
     14 N3          3.2420    6.6900   -4.8060 nd        1 IG2     -0.788000
     15 C5          2.5360    5.8830   -3.9540 cc        1 IG2      0.161900
     16 H3          2.2830    1.0050   -2.7970 h1        1 IG2      0.034200
     17 H4          0.5180    1.4810   -2.6080 h1        1 IG2      0.034200
     18 H5          2.9940    3.3540   -2.4380 h1        1 IG2      0.047700
     19 H6          1.1430    3.6060   -0.8650 ho        1 IG2      0.416000
     20 H7          1.6310    2.5590   -4.6700 h1        1 IG2      0.056700
     21 H8         -0.0570    4.5540   -3.6180 ho        1 IG2      0.402000
     22 H9          4.3740    0.6790   -1.3520 ho        1 IG2      0.423000
     23 H10         3.9210    6.2630   -6.8300 h5        1 IG2     -0.017900
     24 H12         2.2500    6.1700   -2.9460 h4        1 IG2     -0.008900
@<TRIPOS>BOND
     1    1    2 1   
     2    2    3 1   
     3    2    4 1   
     4    2    5 1   
     5    4   22 1   
     6    5    6 1   
     7    6    7 1   
     8    6   16 1   
     9    6   17 1   
    10    7    8 1   
    11    7    9 1   
    12    7   18 1   
    13    8   19 1   
    14    9   10 1   
    15    9   11 1   
    16    9   20 1   
    17   10   21 1   
    18   11   12 2   
    19   11   15 1   
    20   12   13 2   
    21   13   14 1   
    22   13   23 1   
    23   14   15 2   
    24   15   24 1   
@<TRIPOS>SUBSTRUCTURE
     1 IG2         1 TEMP              0 ****  ****    0 ROOT
