@<TRIPOS>MOLECULE
molecule
   17    18     1     0     0
SMALL
bcc


@<TRIPOS>ATOM
      1 N1           0.0000     0.0000     0.0000 nc         1 IGA      -0.616100
      2 C2           1.3300     0.0000     0.0000 c          1 IGA       0.837900
      3 O2           1.9240    -0.0000    -1.0660 o          1 IGA      -0.527500
      4 N3           2.0400     0.0000     1.1450 ns         1 IGA      -0.474400
      5 C4           1.3840     0.0000     2.3570 cc         1 IGA       0.590200
      6 C5          -0.0090     0.0000     2.3610 cd         1 IGA      -0.461500
      7 C6          -0.6940     0.0000     1.1330 cd         1 IGA       0.600800
      8 N6          -2.0690     0.0000     1.1050 nz         1 IGA      -0.745600
      9 N7          -0.3890    -0.0000     3.6870 na         1 IGA      -0.316900
     10 C8           0.7410    -0.0000     4.4230 cd         1 IGA       0.569400
     11 N9           1.7830    -0.0000     3.6330 nc         1 IGA      -0.700000
     12 HN3          3.0370    -0.0860     1.1150 hn         1 IGA       0.388500
     13 HN6         -2.4120     0.8170     1.5700 hn         1 IGA       0.476467
     14 HN6A        -2.4120    -0.8170     1.5700 hn         1 IGA       0.476467
     15 H8           0.7790    -0.0000     5.5060 h5         1 IGA       0.110100
     16 HN7         -1.3270    -0.0000     4.0370 hn         1 IGA       0.315700
     17 H63         -2.3840     0.0000     0.1550 hn         1 IGA       0.476467
@<TRIPOS>BOND
     1     7     1 2
     2     1     2 1
     3     2     4 1
     4     2     3 2
     5     5     4 1
     6     4    12 1
     7     6     5 2
     8     5    11 1
     9     7     6 1
    10     9     6 1
    11     8     7 1
    12     8    13 1
    13     8    14 1
    14     9    10 1
    15    10    11 2
    16    10    15 1
    17     9    16 1
    18    17     8 1
@<TRIPOS>SUBSTRUCTURE
     1 IGA         1 TEMP              0 ****  ****    0 ROOT
