@<TRIPOS>MOLECULE
IGF
   23    23     1     0     0
SMALL
bcc


@<TRIPOS>ATOM
      1 C1           0.0000     0.0000     0.0000 c3         1 IGF       0.263100
      2 N1           1.4640     0.0000     0.0000 n7         1 IGF      -0.582100
      3 S1           2.2920     0.0000     1.4340 sy         1 IGF       1.054200
      4 O1           3.6730    -0.0450     1.1010 o          1 IGF      -0.585800
      5 O2           1.7190     1.0280     2.2290 o          1 IGF      -0.585800
      6 C2           1.9260    -1.5200     2.2470 cc         1 IGF      -0.172500
      7 C3           2.2940    -2.7040     1.7550 cd         1 IGF       0.135600
      8 S2           1.7580    -3.9840     2.8340 ss         1 IGF      -0.253800
      9 C4           1.0430    -2.8050     3.9260 cd         1 IGF      -0.002400
     10 C5           1.2420    -1.5750     3.4490 cc         1 IGF      -0.061000
     11 C7           0.3230    -3.1330     5.2090 c3         1 IGF       0.109200
     12 C6           3.0540    -2.9120     0.4690 c3         1 IGF       0.055200
     13 H1          -0.3610    -1.0210     0.0070 h1         1 IGF       0.002033
     14 H2          -0.3610     0.5160     0.8810 h1         1 IGF       0.002033
     15 H3          -0.3610     0.5050    -0.8880 h1         1 IGF       0.002033
     16 H4           1.9640     0.0490    -0.8660 hn         1 IGF       0.346800
     17 H5           0.8870    -0.6880     3.9580 ha         1 IGF       0.145000
     18 H6           0.8330    -2.6620     6.0400 hc         1 IGF       0.012033
     19 H7           0.3120    -4.2070     5.3520 hc         1 IGF       0.012033
     20 H8          -0.6950    -2.7660     5.1550 hc         1 IGF       0.012033
     21 H9           3.9040    -2.2420     0.4400 hc         1 IGF       0.031367
     22 H10          3.4000    -3.9380     0.4170 hc         1 IGF       0.031367
     23 H11          2.4030    -2.7070    -0.3720 hc         1 IGF       0.031367
@<TRIPOS>BOND
     1     1     2 1   
     2     1    13 1   
     3     1    14 1   
     4     1    15 1   
     5     2     3 1   
     6     2    16 1   
     7     3     4 2   
     8     3     5 2   
     9     3     6 1   
    10     6     7 2   
    11     6    10 1   
    12     7     8 1   
    13     7    12 1   
    14     8     9 1   
    15     9    10 2   
    16     9    11 1   
    17    10    17 1   
    18    11    18 1   
    19    11    19 1   
    20    11    20 1   
    21    12    21 1   
    22    12    22 1   
    23    12    23 1   
@<TRIPOS>SUBSTRUCTURE
     1 IGF         1 TEMP              0 ****  ****    0 ROOT
