@<TRIPOS>MOLECULE
IGM
   63    70     1     0     0
SMALL
bcc


@<TRIPOS>ATOM
      1 O25          0.0000     0.0000     0.0000 o          1 IGM      -0.857500
      2 S21          1.4210     0.0000     0.0000 s6         1 IGM       2.393000
      3 O24          2.1980     0.0000     1.1880 o          1 IGM      -0.857500
      4 N23          1.8870    -1.3330    -0.8650 n3         1 IGM      -0.354000
      5 C27          3.2120    -1.9430    -0.6600 c3         1 IGM      -0.170500
      6 C29          3.0210    -3.4480    -0.4380 c3         1 IGM       0.009500
      7 O31          2.2310    -3.9850    -1.5020 os         1 IGM      -0.115000
      8 C30          0.9090    -3.4470    -1.5790 c3         1 IGM       0.009500
      9 C28          0.9890    -1.9460    -1.8560 c3         1 IGM      -0.170500
     10 C18          1.9180     1.4190    -0.9190 ca         1 IGM      -0.642000
     11 C22          3.2650     1.6730    -1.1220 ca         1 IGM       0.005000
     12 Cl2          4.4570     0.5940    -0.4680 cl         1 IGM       0.143000
     13 C19          3.6640     2.7860    -1.8440 ca         1 IGM      -0.141000
     14 C17          2.7210     3.6490    -2.3660 ca         1 IGM      -0.024000
     15 Cl1          3.2230     5.0430    -3.2700 cl         1 IGM       0.147000
     16 C16          0.9660     2.2690    -1.4400 ca         1 IGM       0.013000
     17 C14          1.3610     3.3960    -2.1640 ca         1 IGM      -0.146000
     18 C13          0.3460     4.3140    -2.7190 c2         1 IGM       0.225000
     19 O15          0.6930     5.2920    -3.3530 o          1 IGM      -0.364000
     20 N10         -0.9640     4.0690    -2.5220 ns         1 IGM       0.180000
     21 C5          -1.9170     4.9300    -3.0440 c2         1 IGM      -0.232000
     22 C2          -3.2680     4.7720    -2.9030 c2         1 IGM      -0.053000
     23 C6          -3.8630     3.6820    -2.1900 c1         1 IGM      -0.080000
     24 N11         -4.3200     2.8190    -1.6110 n1         1 IGM      -0.059000
     25 S7          -1.5650     6.3350    -3.9410 ss         1 IGM       0.419000
     26 C3          -3.2610     6.7300    -4.1470 c2         1 IGM      -0.371000
     27 C1          -4.0380     5.8180    -3.5440 c2         1 IGM      -0.081000
     28 C8          -3.8020     7.9330    -4.8940 c3         1 IGM      -0.046000
     29 N12         -5.2260     7.7050    -5.1810 n3         1 IGM       0.090000
     30 C9          -5.9530     7.3230    -3.9630 DU         1 IGM      -0.234000
     31 C4          -5.5560     5.9040    -3.5510 DU         1 IGM      -0.261000
     32 C32         -5.8320     8.8860    -5.8080 c3         1 IGM      -0.112000
     33 C33         -5.2220     9.1020    -7.1700 ca         1 IGM      -0.117000
     34 C38         -5.7890     8.5070    -8.2810 ca         1 IGM      -0.079000
     35 C37         -5.2320     8.7020    -9.5310 ca         1 IGM      -0.144000
     36 C36         -4.1020     9.4960    -9.6680 ca         1 IGM       0.074000
     37 O39         -3.5520     9.6900   -10.8950 oh         1 IGM      -0.242000
     38 C35         -3.5360    10.0930    -8.5510 ca         1 IGM      -0.144000
     39 C34         -4.1010     9.8980    -7.3050 ca         1 IGM      -0.079000
     40 H271         3.6530    -1.2410     0.0370 h1         1 IGM       0.047250
     41 H272         2.9250    -2.9700    -0.4700 h1         1 IGM       0.047250
     42 H281         0.8580    -2.9200    -1.3990 h1         1 IGM       0.047250
     43 H282         0.0430    -1.4610    -1.6460 h1         1 IGM       0.047250
     44 H291         3.8580    -4.0950    -0.2050 h1         1 IGM       0.068500
     45 H292         2.7320    -3.9730    -1.3400 h1         1 IGM       0.068500
     46 H301         0.1330    -4.1070    -1.9480 h1         1 IGM       0.068500
     47 H302         0.7190    -2.4280    -1.8930 h1         1 IGM       0.068500
     48 H16          0.0820     1.6650    -1.2750 ha         1 IGM       0.162000
     49 H19          4.7050     3.0660    -1.9550 ha         1 IGM       0.135000
     50 H10         -1.0520     3.1300    -2.1860 hn         1 IGM       0.103000
     51 H81C        -3.6740     8.2950    -3.8810 h1         1 IGM       0.099000
     52 H82C        -2.9240     8.1020    -5.5070 h1         1 IGM       0.099000
     53 H41C        -5.8840     5.1910    -2.8050 ha         1 IGM       0.145000
     54 H42C        -5.4770     6.9250    -3.1980 DU         1 IGM       0.159500
     55 H91C        -7.0360     7.3190    -4.0130 ha         1 IGM       0.106000
     56 H92C        -5.3220     6.6570    -3.3860 DU         1 IGM       0.159500
     57 H321        -5.4450     9.8980    -5.7980 h1         1 IGM       0.094500
     58 H322        -6.9140     8.8590    -5.8630 h1         1 IGM       0.094500
     59 H38         -6.7580     8.0300    -8.3780 ha         1 IGM       0.110000
     60 H34         -3.5610    10.3060    -6.4580 ha         1 IGM       0.110000
     61 H37         -5.6260     8.1750   -10.3910 ha         1 IGM       0.114000
     62 H39         -2.8700     9.0400   -10.9200 ho         1 IGM       0.198000
     63 H35         -2.5700    10.5820    -8.5550 ha         1 IGM       0.114000
@<TRIPOS>BOND
     1     1     2 1   
     2     2     3 1   
     3     2     4 1   
     4     2    10 1   
     5     4     5 1   
     6     4     9 1   
     7     5     6 1   
     8     5    40 1   
     9     5    41 1   
    10     6     7 1   
    11     6    44 1   
    12     6    45 1   
    13     7     8 1   
    14     8     9 1   
    15     8    46 1   
    16     8    47 1   
    17     9    42 1   
    18     9    43 1   
    19    10    11 1   
    20    10    16 1   
    21    11    12 1   
    22    11    13 1   
    23    13    14 1   
    24    13    49 1   
    25    14    15 1   
    26    14    17 1   
    27    16    17 1   
    28    16    48 1   
    29    17    18 1   
    30    18    19 1   
    31    18    20 1   
    32    20    21 1   
    33    20    50 1   
    34    21    22 1   
    35    21    25 1   
    36    22    23 1   
    37    22    27 1   
    38    23    24 1   
    39    25    26 1   
    40    26    27 1   
    41    26    28 1   
    42    27    31 1   
    43    28    29 1   
    44    28    51 1   
    45    28    52 1   
    46    29    30 1   
    47    29    32 1   
    48    30    31 1   
    49    30    54 1   
    50    30    55 1   
    51    30    56 1   
    52    31    53 1   
    53    31    54 1   
    54    31    56 1   
    55    32    33 1   
    56    32    57 1   
    57    32    58 1   
    58    33    34 1   
    59    33    39 1   
    60    34    35 1   
    61    34    59 1   
    62    35    36 1   
    63    35    61 1   
    64    36    37 1   
    65    36    38 1   
    66    37    62 1   
    67    38    39 1   
    68    38    63 1   
    69    39    60 1   
    70    54    56 1   
@<TRIPOS>SUBSTRUCTURE
     1 IGM         1 TEMP              0 ****  ****    0 ROOT
