@<TRIPOS>MOLECULE
molecule
   63    67     1     0     0
SMALL
bcc


@<TRIPOS>ATOM
      1 O25          0.0000     0.0000     0.0000 o          1 IGM      -0.612800
      2 S21          1.4210     0.0000     0.0000 sy         1 IGM       1.424200
      3 O24          2.1980     0.0000     1.1880 o          1 IGM      -0.612800
      4 N23          1.8870    -1.3330    -0.8650 n3         1 IGM      -0.663500
      5 C27          3.2120    -1.9430    -0.6600 c3         1 IGM       0.030300
      6 C29          3.0210    -3.4480    -0.4380 c3         1 IGM      -0.001600
      7 O31          2.2310    -3.9850    -1.5020 os         1 IGM      -0.367600
      8 C30          0.9090    -3.4470    -1.5790 c3         1 IGM      -0.001600
      9 C28          0.9890    -1.9460    -1.8560 c3         1 IGM       0.030300
     10 C18          1.9180     1.4190    -0.9190 ca         1 IGM      -0.339500
     11 C22          3.2650     1.6730    -1.1220 ca         1 IGM       0.155400
     12 Cl2          4.4570     0.5940    -0.4680 cl         1 IGM      -0.041400
     13 C19          3.6640     2.7860    -1.8440 ca         1 IGM      -0.150000
     14 C17          2.7210     3.6490    -2.3660 ca         1 IGM       0.134400
     15 Cl1          3.2230     5.0430    -3.2700 cl         1 IGM      -0.028400
     16 C16          0.9660     2.2690    -1.4400 ca         1 IGM      -0.002000
     17 C14          1.3610     3.3960    -2.1640 ca         1 IGM      -0.149600
     18 C13          0.3460     4.3140    -2.7190 c          1 IGM       0.646700
     19 O15          0.6930     5.2920    -3.3530 o          1 IGM      -0.572100
     20 N10         -0.9640     4.0690    -2.5220 ns         1 IGM      -0.421100
     21 C5          -1.9170     4.9300    -3.0440 cc         1 IGM       0.117500
     22 C2          -3.2680     4.7720    -2.9030 cd         1 IGM      -0.107000
     23 C6          -3.8630     3.6820    -2.1900 ch         1 IGM       0.262800
     24 N11         -4.3200     2.8190    -1.6110 n1         1 IGM      -0.375800
     25 S7          -1.5650     6.3350    -3.9410 ss         1 IGM       0.053200
     26 C3          -3.2610     6.7300    -4.1470 cc         1 IGM      -0.180400
     27 C1          -4.0380     5.8180    -3.5440 cd         1 IGM      -0.091300
     28 C8          -3.8020     7.9330    -4.8940 c3         1 IGM       0.209100
     29 N12         -5.2260     7.7050    -5.1810 n3         1 IGM      -0.603600
     30 C9          -5.9530     7.3230    -3.9630 c3         1 IGM      -0.036200
     31 C4          -5.5560     5.9040    -3.5510 c3         1 IGM      -0.356100
     32 C32         -5.8320     8.8860    -5.8080 c3         1 IGM       0.157100
     33 C33         -5.2220     9.1020    -7.1700 ca         1 IGM      -0.104300
     34 C38         -5.7890     8.5070    -8.2810 ca         1 IGM      -0.112000
     35 C37         -5.2320     8.7020    -9.5310 ca         1 IGM      -0.157000
     36 C36         -4.1020     9.4960    -9.6680 ca         1 IGM       0.094100
     37 O39         -3.5520     9.6900   -10.8950 oh         1 IGM      -0.505100
     38 C35         -3.5360    10.0930    -8.5510 ca         1 IGM      -0.157000
     39 C34         -4.1010     9.8980    -7.3050 ca         1 IGM      -0.112000
     40 H271         3.6530    -1.2410     0.0370 h1         1 IGM       0.084950
     41 H272         2.9250    -2.9700    -0.4700 h1         1 IGM       0.084950
     42 H281         0.8580    -2.9200    -1.3990 h1         1 IGM       0.084950
     43 H282         0.0430    -1.4610    -1.6460 h1         1 IGM       0.084950
     44 H291         3.8580    -4.0950    -0.2050 h1         1 IGM       0.121950
     45 H292         2.7320    -3.9730    -1.3400 h1         1 IGM       0.121950
     46 H301         0.1330    -4.1070    -1.9480 h1         1 IGM       0.121950
     47 H302         0.7190    -2.4280    -1.8930 h1         1 IGM       0.121950
     48 H16          0.0820     1.6650    -1.2750 ha         1 IGM       0.183000
     49 H19          4.7050     3.0660    -1.9550 ha         1 IGM       0.171000
     50 H10         -1.0520     3.1300    -2.1860 hn         1 IGM       0.346500
     51 H81C        -3.6740     8.2950    -3.8810 h1         1 IGM       0.082200
     52 H82C        -2.9240     8.1020    -5.5070 h1         1 IGM       0.082200
     53 H41C        -5.8840     5.1910    -2.8050 hc         1 IGM       0.203200
     54 H42C        -5.4770     6.9250    -3.1980 hc         1 IGM       0.203200
     55 H91C        -7.0360     7.3190    -4.0130 h1         1 IGM       0.164200
     56 H92C        -5.3220     6.6570    -3.3860 h1         1 IGM       0.164200
     57 H321        -5.4450     9.8980    -5.7980 h1         1 IGM       0.077200
     58 H322        -6.9140     8.8590    -5.8630 h1         1 IGM       0.077200
     59 H38         -6.7580     8.0300    -8.3780 ha         1 IGM       0.136000
     60 H34         -3.5610    10.3060    -6.4580 ha         1 IGM       0.136000
     61 H37         -5.6260     8.1750   -10.3910 ha         1 IGM       0.139500
     62 H39         -2.8700     9.0400   -10.9200 ho         1 IGM       0.412000
     63 H35         -2.5700    10.5820    -8.5550 ha         1 IGM       0.139500
@<TRIPOS>BOND
     1     1     2 2
     2     2     3 2
     3     2     4 1
     4     2    10 1
     5     4     5 1
     6     4     9 1
     7     5     6 1
     8     6     7 1
     9     7     8 1
    10     8     9 1
    11    10    11 ar
    12    10    16 ar
    13    11    12 1
    14    11    13 ar
    15    13    14 ar
    16    14    15 1
    17    14    17 ar
    18    16    17 ar
    19    17    18 1
    20    18    19 2
    21    18    20 1
    22    20    21 1
    23    21    22 2
    24    21    25 1
    25    22    23 1
    26    22    27 1
    27    23    24 3
    28    25    26 1
    29    26    27 2
    30    26    28 1
    31    27    31 1
    32    28    29 1
    33    29    30 1
    34    29    32 1
    35    30    31 1
    36    32    33 1
    37    33    34 ar
    38    33    39 ar
    39    34    35 ar
    40    35    36 ar
    41    36    37 1
    42    36    38 ar
    43    38    39 ar
    44     5    40 1
    45     5    41 1
    46     9    42 1
    47     9    43 1
    48     6    44 1
    49     6    45 1
    50     8    46 1
    51     8    47 1
    52    16    48 1
    53    13    49 1
    54    20    50 1
    55    28    51 1
    56    28    52 1
    57    31    53 1
    58    31    54 1
    59    30    55 1
    60    30    56 1
    61    32    57 1
    62    32    58 1
    63    34    59 1
    64    39    60 1
    65    35    61 1
    66    37    62 1
    67    38    63 1
@<TRIPOS>SUBSTRUCTURE
     1 IGM         1 TEMP              0 ****  ****    0 ROOT
