@<TRIPOS>MOLECULE
IGN
   69    70     1     0     0
SMALL
bcc


@<TRIPOS>ATOM
      1 C1           0.0000     0.0000     0.0000 c          1 IGN       0.605100
      2 O2          -0.6060     0.8330     0.6400 o          1 IGN      -0.615100
      3 N3          -0.6750    -0.9260    -0.7090 ns         1 IGN      -0.204900
      4 C4          -2.1390    -0.9270    -0.7090 c3         1 IGN       0.064000
      5 C5          -2.6500    -2.0710    -1.5850 c3         1 IGN      -0.047400
      6 C6          -4.1790    -2.0730    -1.5850 c3         1 IGN       0.164800
      7 N7          -4.6680    -3.1690    -2.4250 nu         1 IGN      -0.480200
      8 C8          -6.0200    -3.3680    -2.5770 c2         1 IGN       0.239100
      9 N9          -6.8660    -2.5830    -1.9740 n2         1 IGN      -0.629100
     10 N10         -6.4780    -4.3970    -3.3650 nz         1 IGN       0.197400
     11 N11          1.9980     1.2050    -0.6810 n          1 IGN      -0.158800
     12 C12          1.5070     0.0000     0.0000 c3         1 IGN      -0.027300
     13 C13          2.0210     0.0000     1.4420 c3         1 IGN      -0.034400
     14 C14          3.5450     0.1410     1.4380 c3         1 IGN      -0.024400
     15 C15          3.9340     1.4690     0.7850 c3         1 IGN      -0.043400
     16 C16          3.4410     1.4860    -0.6640 c3         1 IGN       0.026000
     17 O31         -0.0290     1.7460    -1.4000 o          1 IGN      -0.620100
     18 C32          1.1430     2.0400    -1.3030 c          1 IGN       0.566100
     19 C33          1.6450     3.3390    -1.8790 c3         1 IGN       0.034500
     20 C34          2.5830     3.0490    -3.0520 c3         1 IGN      -0.060400
     21 C51          4.0760     4.9770    -2.5100 c3         1 IGN      -0.026400
     22 C52          3.1660     4.3620    -3.5750 c3         1 IGN      -0.052700
     23 C53          3.9780     4.0910    -4.8430 c3         1 IGN      -0.026400
     24 C54          4.5610     5.4050    -5.3670 c3         1 IGN      -0.022900
     25 C55          5.4700     6.0200    -4.3010 c3         1 IGN      -0.025400
     26 C56          4.6590     6.2910    -3.0340 c3         1 IGN      -0.022900
     27 N21          0.5050     4.1360    -2.3500 n7         1 IGN      -0.519200
     28 C22         -0.0590     3.4260    -3.5060 c3         1 IGN      -0.034200
     29 C23         -1.1900     4.2340    -4.0890 c          1 IGN       0.984600
     30 O24         -1.8590     3.7770    -5.1600 o          1 IGN      -0.899300
     31 O25         -1.4950     5.2930    -3.5930 o          1 IGN      -0.899300
     32 H31         -0.1740    -1.6210    -1.2270 hn         1 IGN       0.163500
     33 H41         -2.5000     0.0160    -1.1000 h1         1 IGN       0.038700
     34 H42         -2.5000    -1.0600     0.3040 h1         1 IGN       0.038700
     35 H51         -2.2880    -3.0150    -1.1940 hc         1 IGN       0.024700
     36 H52         -2.2890    -1.9380    -2.5980 hc         1 IGN       0.024700
     37 H61         -4.5400    -2.2060    -0.5720 h1         1 IGN       0.040700
     38 H62         -4.5410    -1.1300    -1.9760 h1         1 IGN       0.040700
     39 H71         -4.0180    -3.7720    -2.8880 hn         1 IGN       0.302800
     40 H91         -6.5340    -1.8330    -1.4000 hn         1 IGN       0.392400
     41 H101        -6.1450    -4.2750    -4.3010 hn         1 IGN       0.219800
     42 H102        -7.4790    -4.3970    -3.3650 hn         1 IGN       0.219800
     43 H121         1.8750    -0.8800    -0.5140 h1         1 IGN       0.013700
     44 H131         1.7470    -0.9320     1.9220 hc         1 IGN       0.030700
     45 H132         1.5840     0.8320     1.9800 hc         1 IGN       0.030700
     46 H141         3.9800    -0.6770     0.8760 hc         1 IGN       0.012700
     47 H142         3.9110     0.1200     2.4570 hc         1 IGN       0.012700
     48 H151         5.0120     1.5750     0.8000 hc         1 IGN       0.024700
     49 H152         3.4770     2.2860     1.3310 hc         1 IGN       0.024700
     50 H161         3.6250     2.4620    -1.0970 h1         1 IGN       0.041200
     51 H162         3.9640     0.7270    -1.2330 h1         1 IGN       0.041200
     52 H331         2.1810     3.8900    -1.1160 h1         1 IGN       0.043700
     53 H341         3.3870     2.4030    -2.7200 hc         1 IGN       0.031700
     54 H342         2.0300     2.5580    -3.8440 hc         1 IGN       0.031700
     55 H511         4.8820     4.2900    -2.2850 hc         1 IGN       0.010450
     56 H512         3.4990     5.1710    -1.6130 hc         1 IGN       0.010450
     57 H521         2.3640     5.0530    -3.8040 hc         1 IGN       0.082700
     58 H531         3.3330     3.6570    -5.5970 hc         1 IGN       0.010450
     59 H532         4.7850     3.4050    -4.6130 hc         1 IGN       0.010450
     60 H541         5.1380     5.2110    -6.2630 hc         1 IGN       0.014700
     61 H542         3.7550     6.0920    -5.5920 hc         1 IGN       0.014700
     62 H551         6.2750     5.3310    -4.0730 hc         1 IGN       0.005700
     63 H552         5.8800     6.9520    -4.6720 hc         1 IGN       0.005700
     64 H561         5.3040     6.7250    -2.2790 hc         1 IGN       0.014700
     65 H562         3.8520     6.9770    -3.2630 hc         1 IGN       0.014700
     66 H211        -0.1840     4.1950    -1.6260 hn         1 IGN       0.278800
     67 H221        -0.4310     2.4590    -3.1890 h1         1 IGN       0.026700
     68 H222         0.7110     3.2880    -4.2560 h1         1 IGN       0.026700
     69 H103        -6.1480    -5.2690    -3.0010 hn         1 IGN       0.219800
@<TRIPOS>BOND
     1     1     2 2   
     2     1     3 1   
     3     1    12 1   
     4     3     4 1   
     5     3    32 1   
     6     4     5 1   
     7     4    33 1   
     8     4    34 1   
     9     5     6 1   
    10     5    35 1   
    11     5    36 1   
    12     6     7 1   
    13     6    37 1   
    14     6    38 1   
    15     7     8 1   
    16     7    39 1   
    17     8     9 2   
    18     8    10 1   
    19     9    40 1   
    20    10    41 1   
    21    10    42 1   
    22    10    69 1   
    23    11    12 1   
    24    11    16 1   
    25    11    18 1   
    26    12    13 1   
    27    12    43 1   
    28    13    14 1   
    29    13    44 1   
    30    13    45 1   
    31    14    15 1   
    32    14    46 1   
    33    14    47 1   
    34    15    16 1   
    35    15    48 1   
    36    15    49 1   
    37    16    50 1   
    38    16    51 1   
    39    17    18 2   
    40    18    19 1   
    41    19    20 1   
    42    19    27 1   
    43    19    52 1   
    44    20    22 1   
    45    20    53 1   
    46    20    54 1   
    47    21    22 1   
    48    21    26 1   
    49    21    55 1   
    50    21    56 1   
    51    22    23 1   
    52    22    57 1   
    53    23    24 1   
    54    23    58 1   
    55    23    59 1   
    56    24    25 1   
    57    24    60 1   
    58    24    61 1   
    59    25    26 1   
    60    25    62 1   
    61    25    63 1   
    62    26    64 1   
    63    26    65 1   
    64    27    28 1   
    65    27    66 1   
    66    28    29 1   
    67    28    67 1   
    68    28    68 1   
    69    29    30 1   
    70    29    31 1   
@<TRIPOS>SUBSTRUCTURE
     1 IGN         1 TEMP              0 ****  ****    0 ROOT
