@<TRIPOS>MOLECULE
molecule
   31    32     1     0     0
SMALL
bcc


@<TRIPOS>ATOM
      1 C1           0.0000     0.0000     0.0000 c3         1 IGP       0.139400
      2 P           -2.0860     1.1000     0.6350 p5         1 IGP       1.159900
      3 OP1         -2.6930     2.3900     1.3810 o          1 IGP      -0.912500
      4 OP2         -2.5850     1.0800    -0.8940 o          1 IGP      -0.912500
      5 OP3         -2.5450    -0.1280     1.3210 o          1 IGP      -0.912500
      6 OP4         -0.4770     1.1660     0.6730 os         1 IGP      -0.546200
      7 C2           1.5300     0.0000     0.0000 c3         1 IGP       0.145100
      8 O2           2.0040     0.0000     1.3460 oh         1 IGP      -0.624800
      9 C3           2.0400    -1.2480    -0.7210 c3         1 IGP       0.212300
     10 O3           1.5640    -1.2480    -2.0690 oh         1 IGP      -0.593800
     11 CG           3.5470    -1.2470    -0.7210 cc         1 IGP      -0.138400
     12 CD2          4.4190    -1.8300     0.3010 ca         1 IGP      -0.078800
     13 CE2          5.7360    -1.5890    -0.1270 ca         1 IGP      -0.050200
     14 CE3          4.1890    -2.5240     1.4900 ca         1 IGP      -0.045000
     15 CD1          4.3450    -0.7070    -1.6550 cd         1 IGP      -0.108100
     16 NE1          5.6570    -0.9010    -1.3170 na         1 IGP      -0.198400
     17 CZ2          6.7980    -2.0370     0.6510 ca         1 IGP      -0.165000
     18 CZ3          5.2480    -2.9550     2.2390 ca         1 IGP      -0.181000
     19 CH2          6.5500    -2.7150     1.8230 ca         1 IGP      -0.122000
     20 H11         -0.3610    -0.0000    -1.0210 h1         1 IGP       0.052200
     21 H12         -0.3610    -0.8850     0.5110 h1         1 IGP       0.052200
     22 H2           1.8910     0.8850    -0.5100 h1         1 IGP       0.031700
     23 HO2          2.0800     0.8880     1.6530 ho         1 IGP       0.415000
     24 H3           1.6790    -2.1330    -0.2110 h1         1 IGP       0.050700
     25 HO3          1.3650    -2.1310    -2.3320 ho         1 IGP       0.392000
     26 HE3          3.1750    -2.7160     1.8210 ha         1 IGP       0.155000
     27 HD1          4.0010    -0.1940    -2.5450 h4         1 IGP       0.177000
     28 HN1          6.4410    -0.5900    -1.8550 hn         1 IGP       0.277700
     29 HZ2          7.8180    -1.8540     0.3350 ha         1 IGP       0.104000
     30 HZ3          5.0690    -3.4900     3.1640 ha         1 IGP       0.118000
     31 HH2          7.3790    -3.0630     2.4280 ha         1 IGP       0.108000
@<TRIPOS>BOND
     1     1     6 1
     2     1     7 1
     3     1    20 1
     4     1    21 1
     5     2     3 1
     6     2     4 1
     7     2     5 1
     8     2     6 1
     9     7     8 1
    10     7     9 1
    11     7    22 1
    12     8    23 1
    13     9    10 1
    14     9    11 1
    15     9    24 1
    16    10    25 1
    17    11    12 1
    18    11    15 2
    19    12    13 ar
    20    12    14 ar
    21    13    16 1
    22    13    17 ar
    23    14    18 ar
    24    14    26 1
    25    15    16 1
    26    15    27 1
    27    16    28 1
    28    17    19 ar
    29    17    29 1
    30    18    19 ar
    31    18    30 1
    32    19    31 1
@<TRIPOS>SUBSTRUCTURE
     1 IGP         1 TEMP              0 ****  ****    0 ROOT
