@<TRIPOS>MOLECULE
IGP
   31    32     1     0     0
SMALL
bcc


@<TRIPOS>ATOM
      1 C1          0.1330    0.5410   -0.4890 c3        1 IGP      0.194400
      2 P          -1.7210    0.3030    1.3370 p5        1 IGP      1.315900
      3 OP1        -2.4290    1.3180    2.1790 o         1 IGP     -0.919167
      4 OP2        -2.4730   -0.2840    0.1750 o         1 IGP     -0.919167
      5 OP3        -0.7940   -0.6620    2.0450 o         1 IGP     -0.919167
      6 OP4        -0.4750    1.2240    0.5260 os        1 IGP     -0.554200
      7 C2          1.6140    0.2130   -0.1530 c3        1 IGP      0.112100
      8 O2          1.8180   -0.0540    1.2090 oh        1 IGP     -0.679800
      9 C3          2.0830   -1.0240   -0.9690 c3        1 IGP      0.163300
     10 O3          1.7510   -0.9010   -2.3570 oh        1 IGP     -0.648800
     11 CG          3.5490   -1.2480   -0.9100 cc        1 IGP     -0.043400
     12 CD2         4.2950   -1.7230    0.2510 ca        1 IGP     -0.066800
     13 CE2         5.6720   -1.8450   -0.1710 ca        1 IGP     -0.076200
     14 CE3         3.9380   -2.0290    1.5590 ca        1 IGP     -0.040000
     15 CD1         4.4620   -1.0980   -1.9400 cd        1 IGP     -0.167100
     16 NE1         5.7580   -1.5390   -1.5500 na        1 IGP     -0.190400
     17 CZ2         6.6560   -2.2800    0.7210 ca        1 IGP     -0.175000
     18 CZ3         4.9320   -2.4630    2.4340 ca        1 IGP     -0.178000
     19 CH2         6.2640   -2.5880    2.0210 ca        1 IGP     -0.133000
     20 H11        -0.4190   -0.4210   -0.7090 h1        1 IGP     -0.006800
     21 H12         0.1510    1.1750   -1.4270 h1        1 IGP     -0.006800
     22 H2          2.2730    1.0860   -0.4180 h1        1 IGP      0.012700
     23 HO2         0.9210   -0.1580    1.6380 ho        1 IGP      0.504000
     24 H3          1.5570   -1.9320   -0.5500 h1        1 IGP      0.063700
     25 HO3         0.8130   -0.6760   -2.3920 ho        1 IGP      0.423000
     26 HE3         2.8880   -1.8840    1.8830 ha        1 IGP      0.204000
     27 HD1         4.2770   -0.7700   -2.9630 h4        1 IGP      0.164000
     28 HN1         6.5490   -1.0360   -1.8730 hn        1 IGP      0.242700
     29 HZ2         7.7030   -2.3760    0.4090 ha        1 IGP      0.105000
     30 HZ3         4.6660   -2.7020    3.4740 ha        1 IGP      0.120000
     31 HH2         7.0220   -2.9280    2.7410 ha        1 IGP      0.100000
@<TRIPOS>BOND
     1    1    6 1   
     2    1    7 1   
     3    1   20 1   
     4    1   21 1   
     5    2    3 1   
     6    2    4 1   
     7    2    5 1   
     8    2    6 1   
     9    7    8 1   
    10    7    9 1   
    11    7   22 1   
    12    8   23 1   
    13    9   10 1   
    14    9   11 1   
    15    9   24 1   
    16   10   25 1   
    17   11   12 1   
    18   11   15 2   
    19   12   13 ar  
    20   12   14 ar  
    21   13   16 1   
    22   13   17 ar  
    23   14   18 ar  
    24   14   26 1   
    25   15   16 1   
    26   15   27 1   
    27   16   28 1   
    28   17   19 ar  
    29   17   29 1   
    30   18   19 ar  
    31   18   30 1   
    32   19   31 1   
@<TRIPOS>SUBSTRUCTURE
     1 IGP         1 TEMP              0 ****  ****    0 ROOT
