@<TRIPOS>MOLECULE
IH1
   67    65     1     0     0
SMALL
bcc


@<TRIPOS>ATOM
      1 C27         3.9700    0.0200    0.4390 c1        1 IH1      0.042800
      2 C28         0.5620    0.8230    0.1770 c2        1 IH1     -0.135000
      3 C29         0.4760    1.3020    1.4200 ce        1 IH1     -0.153000
      4 C24         1.5170    2.0390    2.1200 ce        1 IH1     -0.382100
      5 C25         2.8420    1.8110    1.9460 cf        1 IH1      0.196300
      6 C26         3.4230    0.8470    1.1230 ch        1 IH1     -0.176300
      7 BR          4.7570   -1.1720   -0.5450 br        1 IH1      0.067200
      8 S           0.9680    3.2080    3.1520 sy        1 IH1      1.388900
      9 O1         -0.2270    3.8280    2.7400 o         1 IH1     -0.683300
     10 O2          1.9910    4.1060    3.5240 o         1 IH1     -0.683300
     11 C23         0.5910    2.2690    4.5470 c3        1 IH1     -0.346600
     12 C22        -0.3600    2.9460    5.5290 c3        1 IH1      0.135000
     13 C13         5.8510    9.3580    6.4790 ce        1 IH1     -0.277300
     14 C14         5.9890    9.3850    5.1780 c1        1 IH1      0.027200
     15 C15         6.2530    9.4100    3.9090 c2        1 IH1     -0.177100
     16 C16         2.4630    6.7600    6.3010 c1        1 IH1      0.404800
     17 C19         1.2180    4.5030    6.5240 c         1 IH1      0.797100
     18 C21        -0.8910    5.4230    5.5970 c         1 IH1      0.804100
     19 N17         1.8850    5.7460    6.4080 n1        1 IH1     -0.565800
     20 N18        -1.8330    5.3610    4.6020 n         1 IH1     -0.617000
     21 O21        -0.8370    6.4320    6.3590 o         1 IH1     -0.725100
     22 O19         1.7480    3.6070    7.1900 o         1 IH1     -0.479100
     23 N20         0.0010    4.3280    5.8240 n         1 IH1     -0.521400
     24 C1          2.1680    9.9910    7.0750 c3        1 IH1      0.113800
     25 C2          1.0030   10.3530    6.1380 c3        1 IH1     -0.040500
     26 C3          0.6790    9.2620    5.1400 c3        1 IH1     -0.125100
     27 C4         -1.0540    9.7570    7.3820 c2        1 IH1     -0.124100
     28 C5         -2.4220    7.6570    8.8330 c3        1 IH1     -0.198400
     29 C6         -0.3100   12.1440    7.3580 c3        1 IH1     -0.094900
     30 C7         -0.1740   10.7130    6.9990 c2        1 IH1     -0.086400
     31 C8         -2.9120    9.0870    8.8130 c2        1 IH1      0.455800
     32 N11        -4.0460    9.3950    9.4810 nh        1 IH1     -0.462100
     33 N10        -2.2160   10.0400    8.1320 nh        1 IH1     -0.284400
     34 HC28       -0.2750    0.2870   -0.2920 ha        1 IH1      0.133500
     35 HC29       -0.4590    1.1680    1.9960 ha        1 IH1      0.125000
     36 HC25        3.5780    2.4360    2.5050 ha        1 IH1      0.163000
     37 HC26        1.4570    0.9370   -0.4500 ha        1 IH1      0.133500
     38 H231        0.1210    1.2820    4.2800 h1        1 IH1      0.141200
     39 H232        1.5340    1.9990    5.1010 h1        1 IH1      0.141200
     40 H221       -1.4090    2.9110    5.1220 h1        1 IH1      0.093700
     41 H222       -0.3450    2.3640    6.4990 h1        1 IH1      0.093700
     42 HC13       -2.3600    6.1880    4.4420 hn        1 IH1      0.351500
     43 HC14       -1.7680    4.7010    3.8530 hn        1 IH1      0.351500
     44 HC15        6.4430   10.3510    3.3620 ha        1 IH1      0.184500
     45 H161        6.7350    9.2860    7.1490 ha        1 IH1      0.218000
     46 H162        6.3150    8.4900    3.3000 ha        1 IH1      0.184500
     47 HC11        3.0820    8.2910    6.2510 hn        1 IH1      0.487800
     48 HC12        1.8140    9.2750    7.8710 hx        1 IH1      0.103700
     49 HC2         1.2940   11.2760    5.5520 hc        1 IH1      0.088700
     50 HC31        0.5870    8.2620    5.6340 hc        1 IH1      0.061367
     51 HC32        1.4670    9.2000    4.3490 hc        1 IH1      0.061367
     52 HC41       -0.9300    8.6900    7.0960 h4        1 IH1      0.201000
     53 HC42       -0.2900    9.4900    4.6300 hc        1 IH1      0.061367
     54 HC5        -3.0770    6.9980    9.4570 hc        1 IH1      0.115367
     55 HC61       -1.1330   12.6170    6.7620 hc        1 IH1      0.071033
     56 HC62       -2.3940    7.2420    7.7870 hc        1 IH1      0.115367
     57 HN9         2.5250   10.9300    7.5900 hx        1 IH1      0.103700
     58 HC71        0.6320   12.7100    7.1430 hc        1 IH1      0.071033
     59 HC72       -0.5370   12.2740    8.4470 hc        1 IH1      0.071033
     60 H111       -4.4310   10.3160    9.5150 hn        1 IH1      0.330700
     61 H112       -1.3820    7.6220    9.2520 hc        1 IH1      0.115367
     62 HN10       -2.5120   11.0000    8.1530 hn        1 IH1      0.316700
     63 H113       -4.5340    8.6740    9.9720 hn        1 IH1      0.330700
     64 H92         3.4780    9.7780    5.4820 hn        1 IH1      0.487800
     65 C12         4.5900    9.4310    7.2100 c         1 IH1      0.566300
     66 O12         4.4510    9.5260    8.4240 o         1 IH1     -0.437100
     67 N9          3.3220    9.3510    6.3960 n4        1 IH1     -0.730800
@<TRIPOS>BOND
     1    1    6 3
     2    1    7 1
     3    2    3 2
     4    2   34 1
     5    2   37 1
     6    3    4 1
     7    3   35 1
     8    4    5 2
     9    4    8 1
    10    5    6 1
    11    5   36 1
    12    8    9 2
    13    8   10 2
    14    8   11 1
    15   11   12 1
    16   11   38 1
    17   11   39 1
    18   12   23 1
    19   12   40 1
    20   12   41 1
    21   13   14 2
    22   13   45 1
    23   13   65 1
    24   14   15 2
    25   15   44 1
    26   15   46 1
    27   16   19 3
    28   17   19 1
    29   17   22 2
    30   17   23 1
    31   18   20 1
    32   18   21 2
    33   18   23 1
    34   20   42 1
    35   20   43 1
    36   24   25 1
    37   24   48 1
    38   24   57 1
    39   24   67 1
    40   25   26 1
    41   25   30 1
    42   25   49 1
    43   26   50 1
    44   26   51 1
    45   26   53 1
    46   27   30 2
    47   27   33 1
    48   27   52 1
    49   28   31 1
    50   28   54 1
    51   28   56 1
    52   28   61 1
    53   29   30 1
    54   29   55 1
    55   29   58 1
    56   29   59 1
    57   31   32 2
    58   31   33 1
    59   32   60 1
    60   32   63 1
    61   33   62 1
    62   47   67 1
    63   64   67 1
    64   65   66 2
    65   65   67 1
@<TRIPOS>SUBSTRUCTURE
     1 IH1         1 TEMP              0 ****  ****    0 ROOT
