@<TRIPOS>MOLECULE
IH2
   75    68     1     0     0
SMALL
bcc


@<TRIPOS>ATOM
      1 N9         -0.0230    1.1640   -2.6240 n         1 IH2     -0.415000
      2 C1          2.5460    3.8030    2.7170 c2        1 IH2     -0.135000
      3 N11         1.4600   -0.5280    2.7270 n2        1 IH2     -0.331000
      4 C8          2.5210   -1.2770    2.7710 c2        1 IH2      0.128000
      5 C2          1.3980    2.9220    2.8000 c2        1 IH2     -0.157000
      6 C7          3.3110    3.9140    1.6280 c2        1 IH2     -0.213000
      7 C6          2.0790   -2.7170    0.7960 c2        1 IH2     -0.161000
      8 C5          2.5150   -2.5840    2.0460 c2        1 IH2     -0.171000
      9 C4         -0.5280    1.9130    4.0000 c3        1 IH2     -0.196000
     10 C3          0.6420    2.8050    3.9010 c2        1 IH2     -0.149000
     11 C17        -3.8930   -2.9030   -0.5540 c1        1 IH2      0.105000
     12 N18        -3.3700   -2.7420   -1.6750 n2        1 IH2     -0.133000
     13 C20        -4.0590   -2.1760   -2.7990 c2        1 IH2      0.392000
     14 O20        -4.8250   -2.8660   -3.5050 o         1 IH2     -0.366000
     15 N21        -3.7760   -0.8740   -3.2360 n         1 IH2     -0.352000
     16 C22        -3.0190    0.1260   -2.6120 c2        1 IH2      0.373000
     17 O22        -2.8640    1.1990   -3.2410 o         1 IH2     -0.379000
     18 N19        -2.5840   -0.0250   -1.2630 n2        1 IH2     -0.215000
     19 C13        -1.3570    0.0170   -0.8800 c2        1 IH2      0.083000
     20 C14        -0.9810   -0.0740    0.5670 c3        1 IH2     -0.199000
     21 C15        -4.3020   -3.1240    0.6310 c1        1 IH2     -0.211000
     22 C12        -0.1190    0.1060   -1.7670 c2        1 IH2      0.279000
     23 C16        -4.6810   -3.3710    1.8490 c2        1 IH2     -0.023000
     24 O12         0.7920   -0.7390   -1.6590 o         1 IH2     -0.358000
     25 C24        -5.0870    1.5110   -6.8410 c2        1 IH2     -0.018000
     26 C28        -4.8360    5.4930   -8.4300 c3        1 IH2     -0.080000
     27 C29        -4.5200    5.5350   -9.8300 c1        1 IH2     -0.195000
     28 C30        -4.2520    5.5760  -10.9950 c1        1 IH2     -0.213000
     29 C25        -5.6860    1.8720   -8.1110 c2        1 IH2     -0.012000
     30 C26        -5.7690    3.1360   -8.6000 c2        1 IH2     -0.218000
     31 C27        -5.3990    4.2780   -7.8750 c1        1 IH2     -0.083000
     32 C34        -7.5620   -3.8310   -5.1110 c1        1 IH2     -0.224250
     33 C35        -8.5640   -3.8450   -5.7640 c1        1 IH2     -0.224250
     34 C36        -5.6950   -0.8620   -5.9290 c1        1 IH2     -0.209000
     35 C31        -5.4160    0.2250   -6.3490 c1        1 IH2     -0.142000
     36 C32        -4.9560   -7.4210   -3.4130 c1        1 IH2     -0.224250
     37 C33        -4.9240   -6.2280   -3.5000 c1        1 IH2     -0.224250
     38 HN9         0.7640    1.2200   -3.2260 hn        1 IH2      0.243000
     39 H11         2.7660    4.3980    3.6210 ha        1 IH2      0.120000
     40 H12        -0.7990    1.7580   -2.7980 hn        1 IH2      0.243000
     41 H101        3.8850   -0.0960    3.7660 hn        1 IH2      0.192000
     42 H102        4.4980   -1.5470    3.2220 hn        1 IH2      0.192000
     43 HN11        1.4970    0.3380    3.2260 hn        1 IH2      0.141000
     44 H2          0.8700    3.3870    4.8100 ha        1 IH2      0.120000
     45 H71         2.0830   -3.6910    0.2870 ha        1 IH2      0.133000
     46 H72         1.1630    2.3400    1.8910 ha        1 IH2      0.126000
     47 H61         3.1240    3.3430    0.7090 ha        1 IH2      0.113500
     48 H62         4.1740    4.5900    1.5890 ha        1 IH2      0.113500
     49 H5          1.6940   -1.8810    0.1910 ha        1 IH2      0.133000
     50 H41        -0.3500    1.1350    4.7850 hc        1 IH2      0.086667
     51 H42         2.8890   -3.4390    2.6330 ha        1 IH2      0.134000
     52 H31        -0.7420    1.3910    3.0330 hc        1 IH2      0.086667
     53 H32A       -1.4350    2.5010    4.2920 hc        1 IH2      0.086667
     54 H171        2.5160   -0.3190   -3.2870 ha        1 IH2      0.001000
     55 H172        2.7240    0.1170   -3.7620 ha        1 IH2      0.001000
     56 H13        -0.3570   -0.9960    0.7110 hc        1 IH2      0.123333
     57 H14        -0.3570    0.8150    0.8370 hc        1 IH2      0.123333
     58 H161       -1.8650   -0.1180    1.2460 hc        1 IH2      0.123333
     59 H162       -4.0230   -3.8720    2.5780 ha        1 IH2      0.139500
     60 H163       -5.6830   -3.0930    2.2160 ha        1 IH2      0.139500
     61 H231       -4.1880   -0.6140   -4.1190 hn        1 IH2      0.279000
     62 H232       -3.9670    3.3190   -6.5200 ha        1 IH2      0.139500
     63 H24        -3.8870    2.0630   -5.1480 ha        1 IH2      0.139500
     64 H29        -4.0160    5.6120  -12.0280 ha        1 IH2      0.221000
     65 H30        -6.0740    1.0320   -8.7150 ha        1 IH2      0.132000
     66 H26        -6.2250    3.2800   -9.6020 ha        1 IH2      0.127000
     67 H27        -3.9030    5.7220   -7.8270 hc        1 IH2      0.148000
     68 H34        -6.6730   -3.8260   -4.5250 ha        1 IH2      0.224250
     69 H35        -5.9470   -1.8270   -5.5560 ha        1 IH2      0.244000
     70 H36        -9.4510   -3.8540   -6.3450 ha        1 IH2      0.224250
     71 H32        -4.9860   -8.4770   -3.3380 ha        1 IH2      0.224250
     72 H33        -4.8940   -5.1670   -3.5780 ha        1 IH2      0.224250
     73 N10         3.6970   -1.0390    3.5180 n3        1 IH2     -0.394000
     74 C23        -4.2730    2.3320   -6.1430 c2        1 IH2     -0.124000
     75 H28        -5.5740    6.3200   -8.1840 hc        1 IH2      0.148000
@<TRIPOS>BOND
     1    1   22 1   
     2    1   38 1   
     3    1   40 1   
     4    2    5 1   
     5    2    6 1   
     6    2   39 1   
     7    3    4 1   
     8    3   43 1   
     9    4    8 1   
    10    4   73 1   
    11    5   10 1   
    12    5   46 1   
    13    6   47 1   
    14    6   48 1   
    15    7    8 1   
    16    7   45 1   
    17    7   49 1   
    18    8   51 1   
    19    9   10 1   
    20    9   50 1   
    21    9   52 1   
    22    9   53 1   
    23   10   44 1   
    24   11   12 1   
    25   11   21 1   
    26   12   13 1   
    27   13   14 1   
    28   13   15 1   
    29   15   16 1   
    30   15   61 1   
    31   16   17 1   
    32   16   18 1   
    33   18   19 1   
    34   19   20 1   
    35   19   22 1   
    36   20   56 1   
    37   20   57 1   
    38   20   58 1   
    39   21   23 1   
    40   22   24 1   
    41   23   59 1   
    42   23   60 1   
    43   25   29 1   
    44   25   35 1   
    45   25   74 1   
    46   26   27 1   
    47   26   31 1   
    48   26   67 1   
    49   26   75 1   
    50   27   28 1   
    51   28   64 1   
    52   29   30 1   
    53   29   65 1   
    54   30   31 1   
    55   30   66 1   
    56   32   33 1   
    57   32   68 1   
    58   33   70 1   
    59   34   35 1   
    60   34   69 1   
    61   36   37 1   
    62   36   71 1   
    63   37   72 1   
    64   41   73 1   
    65   42   73 1   
    66   54   55 1   
    67   62   74 1   
    68   63   74 1   
@<TRIPOS>SUBSTRUCTURE
     1 IH2         1 TEMP              0 ****  ****    0 ROOT
