@<TRIPOS>MOLECULE
IH3
   76    78     1     0     0
SMALL
bcc


@<TRIPOS>ATOM
      1 C1         -1.9170   -1.2280   -0.0470 c1        1 IH3      0.080000
      2 NC          0.3460    0.3350    1.6500 n3        1 IH3     -0.421000
      3 C3          1.6880    0.0490    1.3970 c2        1 IH3      0.039000
      4 NA         -3.0150   -3.3040    0.9750 n1        1 IH3      0.043000
      5 C2         -2.5670   -2.3630    0.4390 c1        1 IH3     -0.195000
      6 NB          2.7620    0.3500    2.0420 n2        1 IH3     -0.311000
      7 N10        -4.0900    1.5220   -3.5430 n4        1 IH3     -0.097000
      8 C7         -3.5550   -1.5600   -3.2130 c2        1 IH3     -0.210000
      9 C8         -2.9570    2.3730   -3.1200 c3        1 IH3     -0.134000
     10 C9         -1.7950    1.6000   -2.5110 c3        1 IH3     -0.188000
     11 C4         -2.1370    0.9100   -1.2060 c3        1 IH3     -0.150000
     12 C5         -2.2120   -0.6160   -1.3360 c3        1 IH3     -0.130000
     13 C6         -3.4820   -1.0510   -1.9850 c2        1 IH3     -0.218000
     14 N20        -7.6760    4.9310   -5.5720 n         1 IH3     -0.340000
     15 C19        -6.7580    5.4300   -6.5370 c2        1 IH3      0.335000
     16 O19        -6.6590    6.6070   -6.9140 o         1 IH3     -0.326000
     17 N17        -5.9950    4.2960   -7.0520 n         1 IH3     -0.201000
     18 N18        -6.2650    3.1520   -6.2610 n         1 IH3      0.011000
     19 C21        -7.4500    3.5280   -5.4250 c2        1 IH3      0.331000
     20 O21        -8.1850    2.7370   -4.8300 o         1 IH3     -0.274000
     21 C16        -4.6170    4.5990   -7.4590 c3        1 IH3     -0.012000
     22 C14        -3.6410    3.4890   -7.2150 c2        1 IH3     -0.150000
     23 C13        -3.8950    2.5800   -6.2520 c2        1 IH3     -0.080000
     24 C12        -5.1320    2.6680   -5.4990 c2        1 IH3     -0.355000
     25 C11        -5.2460    2.3650   -4.1480 c2        1 IH3      0.260000
     26 O11        -6.1060    2.5910   -3.2790 o         1 IH3     -0.360000
     27 C23       -10.1930    5.1340   -5.5140 c3        1 IH3     -0.034000
     28 C22        -8.8030    5.6570   -5.0690 c3        1 IH3      0.014000
     29 C24       -11.2350    5.8750   -4.7560 c2        1 IH3     -0.053500
     30 C25       -11.5710    7.3160   -5.0530 c3        1 IH3     -0.112000
     31 C26       -11.7500    8.0670   -3.7580 c2        1 IH3     -0.149500
     32 C27       -12.0900    7.4740   -2.5910 c2        1 IH3     -0.149500
     33 C28       -12.4860    6.0570   -2.6590 c2        1 IH3     -0.092000
     34 C29       -11.8900    5.4500   -3.6790 c1        1 IH3     -0.171500
     35 C30       -10.3670    5.2500   -6.9820 c2        1 IH3     -0.053500
     36 C31       -10.2630    4.0280   -7.8650 c3        1 IH3     -0.112000
     37 C32       -11.3420    4.0730   -8.9170 c2        1 IH3     -0.149500
     38 C33       -11.9280    5.2160   -9.3390 c2        1 IH3     -0.149500
     39 C34       -11.3290    6.4770   -8.8710 c2        1 IH3     -0.092000
     40 C35       -10.7430    6.3120   -7.6900 c1        1 IH3     -0.171500
     41 HNC         0.0980    0.5950    2.5770 hn        1 IH3      0.201500
     42 HC2        -0.3210   -0.2560    1.1980 hn        1 IH3      0.201500
     43 HNB1        1.8400   -0.4740    0.4210 h5        1 IH3      0.147000
     44 HNB2        2.6600    0.8200    2.9160 hn        1 IH3      0.133000
     45 HN10       -3.7750    0.8240   -4.2160 hn        1 IH3      0.224000
     46 HC71       -4.4680    1.0330   -2.7230 hn        1 IH3      0.224000
     47 HC72       -2.6740   -1.7050   -3.8550 ha        1 IH3      0.130000
     48 HC8        -4.5070   -1.8910   -3.6530 ha        1 IH3      0.130000
     49 HC91       -3.3580    3.1210   -2.3770 hx        1 IH3      0.143500
     50 HC92       -1.3930    0.8640   -3.2570 hc        1 IH3      0.109000
     51 HC41       -0.9780    2.3500   -2.3240 hc        1 IH3      0.109000
     52 HC42       -1.3450    1.1570   -0.4450 hc        1 IH3      0.117500
     53 HC5        -3.1110    1.2900   -0.7990 hc        1 IH3      0.117500
     54 HC61       -1.3180   -0.9590   -1.9610 hc        1 IH3      0.165000
     55 HC62       -4.3840   -0.9400   -1.3570 ha        1 IH3      0.145000
     56 H161       -4.2480    5.5320   -6.9410 h1        1 IH3      0.106000
     57 H162       -4.6800    4.8200   -8.5640 h1        1 IH3      0.106000
     58 HC13       -2.6000    2.9390   -4.0300 hx        1 IH3      0.143500
     59 HC12       -3.1970    1.7550   -6.0530 ha        1 IH3      0.098000
     60 H151       -1.7120    2.7010   -7.7490 hc        1 IH3      0.080667
     61 H152       -1.9460    4.4710   -8.0760 hc        1 IH3      0.080667
     62 H153       -2.7440    3.2400   -9.1390 hc        1 IH3      0.080667
     63 HC23      -10.2560    4.0410   -5.2230 hc        1 IH3      0.138000
     64 H221       -8.7690    5.5980   -3.9420 h1        1 IH3      0.115500
     65 H222       -8.6890    6.7310   -5.3930 h1        1 IH3      0.115500
     66 HC25      -10.7170    7.7550   -5.6380 hc        1 IH3      0.123250
     67 HC26      -12.4980    7.4330   -5.6760 hc        1 IH3      0.123250
     68 HC27      -11.6070    9.1550   -3.8300 ha        1 IH3      0.132000
     69 HC28      -12.1880    8.0130   -1.6420 ha        1 IH3      0.135500
     70 HC29      -13.2710    5.6640   -2.0100 ha        1 IH3      0.153500
     71 HC31      -10.4050    3.1190   -7.2210 hc        1 IH3      0.123250
     72 HC32       -9.2660    3.9340   -8.3730 hc        1 IH3      0.123250
     73 HC33      -11.6110    3.0960   -9.3450 ha        1 IH3      0.132000
     74 HC34      -12.7340    5.2460  -10.0810 ha        1 IH3      0.135500
     75 HC35      -11.2930    7.3540   -9.5210 ha        1 IH3      0.153500
     76 C15        -2.4490    3.4710   -8.0840 c3        1 IH3     -0.169000
@<TRIPOS>BOND
     1    1    5 1
     2    1   12 1
     3    2    3 1
     4    2   41 1
     5    2   42 1
     6    3    6 1
     7    3   43 1
     8    4    5 1
     9    6   44 1
    10    7    9 1
    11    7   25 1
    12    7   45 1
    13    7   46 1
    14    8   13 1
    15    8   47 1
    16    8   48 1
    17    9   10 1
    18    9   49 1
    19    9   58 1
    20   10   11 1
    21   10   50 1
    22   10   51 1
    23   11   12 1
    24   11   52 1
    25   11   53 1
    26   12   13 1
    27   12   54 1
    28   13   55 1
    29   14   15 1
    30   14   19 1
    31   14   28 1
    32   15   16 1
    33   15   17 1
    34   17   18 1
    35   17   21 1
    36   18   19 1
    37   18   24 1
    38   19   20 1
    39   21   22 1
    40   21   56 1
    41   21   57 1
    42   22   23 1
    43   22   76 1
    44   23   24 1
    45   23   59 1
    46   24   25 1
    47   25   26 1
    48   27   28 1
    49   27   29 1
    50   27   35 1
    51   27   63 1
    52   28   64 1
    53   28   65 1
    54   29   30 1
    55   29   34 1
    56   30   31 1
    57   30   66 1
    58   30   67 1
    59   31   32 1
    60   31   68 1
    61   32   33 1
    62   32   69 1
    63   33   34 1
    64   33   70 1
    65   35   36 1
    66   35   40 1
    67   36   37 1
    68   36   71 1
    69   36   72 1
    70   37   38 1
    71   37   73 1
    72   38   39 1
    73   38   74 1
    74   39   40 1
    75   39   75 1
    76   60   76 1
    77   61   76 1
    78   62   76 1
@<TRIPOS>SUBSTRUCTURE
     1 IH3         1 TEMP              0 ****  ****    0 ROOT
