@<TRIPOS>MOLECULE
molecule
   88    92     1     0     0
SMALL
bcc


@<TRIPOS>ATOM
      1 O27          0.0000     0.0000     0.0000 o          1 IH4      -0.535000
      2 C26          1.2090     0.0000     0.0000 c          1 IH4       0.629100
      3 O28          1.8800     0.0000     1.1610 os         1 IH4      -0.445900
      4 C29          1.1550    -0.0000     2.4190 c3         1 IH4       0.147700
      5 C25          1.9610     0.0000    -1.3060 c3         1 IH4      -0.074100
      6 C24          0.9810    -0.0000    -2.4510 ca         1 IH4      -0.081300
      7 C30          0.5330     1.1990    -2.9730 ca         1 IH4      -0.109000
      8 C31         -0.3650     1.2050    -4.0230 ca         1 IH4      -0.114500
      9 C23          0.5330    -1.1990    -2.9740 ca         1 IH4      -0.109000
     10 C22         -0.3690    -1.2050    -4.0190 ca         1 IH4      -0.114500
     11 C21         -0.8190    -0.0000    -4.5540 cp         1 IH4      -0.027000
     12 C20         -1.7830     0.0000    -5.6810 cp         1 IH4      -0.039000
     13 C32         -1.6520    -0.9260    -6.7140 ca         1 IH4      -0.116500
     14 C33         -2.5530    -0.9210    -7.7590 ca         1 IH4      -0.112500
     15 C19         -2.8240     0.9270    -5.7110 ca         1 IH4      -0.116500
     16 C18         -3.7140     0.9250    -6.7660 ca         1 IH4      -0.112500
     17 C17         -3.5830    -0.0000    -7.7860 ca         1 IH4      -0.111300
     18 C16         -4.5620     0.0000    -8.9300 c3         1 IH4       0.176300
     19 N3          -5.6860    -0.8840    -8.6110 n          1 IH4      -0.585800
     20 C2          -6.7700    -0.3920    -7.9800 c          1 IH4       0.721700
     21 C34         -7.8720     0.2110    -8.7610 ca         1 IH4      -0.180600
     22 C35         -7.7320     0.4030   -10.1350 ca         1 IH4      -0.076000
     23 C36         -8.7630     0.9650   -10.8590 ca         1 IH4      -0.144000
     24 C37         -9.9350     1.3380   -10.2230 ca         1 IH4      -0.054300
     25 C43        -10.0780     1.1560    -8.8600 ca         1 IH4      -0.144000
     26 C44         -9.0550     0.5890    -8.1260 ca         1 IH4      -0.076000
     27 C38        -11.0570     1.9520   -11.0200 c3         1 IH4      -0.041100
     28 C39        -11.9840     0.8480   -11.5300 c3         1 IH4      -0.077400
     29 C40        -13.1240     1.4710   -12.3390 c3         1 IH4      -0.083400
     30 C41        -14.0520     0.3660   -12.8480 c3         1 IH4      -0.083400
     31 C42        -15.1910     0.9900   -13.6570 c3         1 IH4      -0.092100
     32 O1          -6.8430    -0.4440    -6.7670 o          1 IH4      -0.529100
     33 C4          -5.6320    -2.2990    -8.9780 c3         1 IH4       0.142700
     34 C5          -5.2490    -2.4320   -10.4550 c3         1 IH4      -0.103900
     35 C6          -5.0820    -3.9130   -10.8020 c3         1 IH4       0.130800
     36 N7          -4.0070    -4.4940    -9.9920 n3         1 IH4      -0.647600
     37 C14         -4.4460    -4.4610    -8.5930 c3         1 IH4       0.130800
     38 C15         -4.5770    -3.0100    -8.1250 c3         1 IH4      -0.103900
     39 C8          -3.9100    -5.9090   -10.3710 c3         1 IH4       0.126500
     40 C9          -2.8170    -6.5710    -9.5740 cc         1 IH4       0.396800
     41 N10         -2.4520    -7.8670    -9.6620 na         1 IH4      -0.293900
     42 C11         -1.4290    -8.0620    -8.7740 cc         1 IH4      -0.280600
     43 C12         -1.2050    -6.8770    -8.1730 cd         1 IH4       0.311200
     44 N13         -2.0640    -5.9830    -8.6840 nd         1 IH4      -0.679000
     45 H291         0.5320     0.8840     2.4770 h1         1 IH4       0.047700
     46 H292         0.5320    -0.8850     2.4770 h1         1 IH4       0.047700
     47 H293         1.8590    -0.0000     3.2420 h1         1 IH4       0.047700
     48 H251         2.5840    -0.8840    -1.3640 hc         1 IH4       0.076700
     49 H252         2.5830     0.8850    -1.3640 hc         1 IH4       0.076700
     50 H30          0.8870     2.1350    -2.5590 ha         1 IH4       0.129500
     51 H31         -0.7130     2.1450    -4.4330 ha         1 IH4       0.137000
     52 H23          0.8840    -2.1360    -2.5570 ha         1 IH4       0.129500
     53 H22         -0.7190    -2.1450    -4.4280 ha         1 IH4       0.137000
     54 H32         -0.8450    -1.6480    -6.6950 ha         1 IH4       0.136000
     55 H33         -2.4530    -1.6430    -8.5610 ha         1 IH4       0.140500
     56 H19         -2.9280     1.6530    -4.9140 ha         1 IH4       0.136000
     57 H18         -4.5240     1.6450    -6.7910 ha         1 IH4       0.140500
     58 H161        -4.9290     1.0070    -9.0910 h1         1 IH4       0.052200
     59 H162        -4.0690    -0.3520    -9.8280 h1         1 IH4       0.052200
     60 H35         -6.8160     0.1110   -10.6330 ha         1 IH4       0.146000
     61 H36         -8.6570     1.1120   -11.9270 ha         1 IH4       0.134500
     62 H43        -10.9970     1.4500    -8.3690 ha         1 IH4       0.134500
     63 H44         -9.1680     0.4460    -7.0580 ha         1 IH4       0.146000
     64 H381       -11.6170     2.6320   -10.3890 hc         1 IH4       0.050700
     65 H382       -10.6460     2.4970   -11.8620 hc         1 IH4       0.050700
     66 H391       -11.4240     0.1690   -12.1610 hc         1 IH4       0.045700
     67 H392       -12.3950     0.3040   -10.6880 hc         1 IH4       0.045700
     68 H401       -13.6850     2.1510   -11.7080 hc         1 IH4       0.041700
     69 H402       -12.7140     2.0150   -13.1810 hc         1 IH4       0.041700
     70 H411       -13.4910    -0.3140   -13.4780 hc         1 IH4       0.041200
     71 H412       -14.4620    -0.1770   -12.0060 hc         1 IH4       0.041200
     72 H421       -15.7510     1.6700   -13.0260 hc         1 IH4       0.033033
     73 H422       -14.7810     1.5340   -14.4990 hc         1 IH4       0.033033
     74 H423       -15.8480     0.2080   -14.0170 hc         1 IH4       0.033033
     75 H4          -6.5990    -2.7590    -8.8140 h1         1 IH4       0.056700
     76 H5C1        -6.0300    -2.0030   -11.0700 hc         1 IH4       0.063450
     77 H5C2        -4.3150    -1.9120   -10.6330 hc         1 IH4       0.063450
     78 H6C1        -4.8330    -4.0090   -11.8520 h1         1 IH4       0.043950
     79 H6C2        -6.0090    -4.4360   -10.5970 h1         1 IH4       0.043950
     80 H141        -5.4070    -4.9540    -8.5080 h1         1 IH4       0.043950
     81 H142        -3.7170    -4.9730    -7.9770 h1         1 IH4       0.043950
     82 H151        -3.6240    -2.5080    -8.2380 hc         1 IH4       0.063450
     83 H152        -4.8810    -2.9920    -7.0860 hc         1 IH4       0.063450
     84 H8C1        -3.6820    -5.9850   -11.4280 h1         1 IH4       0.043700
     85 H8C2        -4.8530    -6.4030   -10.1700 h1         1 IH4       0.043700
     86 H10         -2.8540    -8.5570   -10.2650 hn         1 IH4       0.295700
     87 H11         -0.9020    -8.9900    -8.5890 h4         1 IH4       0.174000
     88 H12         -0.4580    -6.6800    -7.4140 h4         1 IH4       0.041100
@<TRIPOS>BOND
     1     1     2 2
     2     2     3 1
     3     2     5 1
     4     3     4 1
     5     4    45 1
     6     4    46 1
     7     4    47 1
     8     5     6 1
     9     5    48 1
    10     5    49 1
    11     6     7 ar
    12     6     9 ar
    13     7     8 ar
    14     7    50 1
    15     8    11 ar
    16     8    51 1
    17     9    10 ar
    18     9    52 1
    19    10    11 ar
    20    10    53 1
    21    11    12 1
    22    12    13 ar
    23    12    15 ar
    24    13    14 ar
    25    13    54 1
    26    14    17 ar
    27    14    55 1
    28    15    16 ar
    29    15    56 1
    30    16    17 ar
    31    16    57 1
    32    17    18 1
    33    18    19 1
    34    18    58 1
    35    18    59 1
    36    19    20 1
    37    19    33 1
    38    20    21 1
    39    20    32 2
    40    21    22 ar
    41    21    26 ar
    42    22    23 ar
    43    22    60 1
    44    23    24 ar
    45    23    61 1
    46    24    25 ar
    47    24    27 1
    48    25    26 ar
    49    25    62 1
    50    26    63 1
    51    27    28 1
    52    27    64 1
    53    27    65 1
    54    28    29 1
    55    28    66 1
    56    28    67 1
    57    29    30 1
    58    29    68 1
    59    29    69 1
    60    30    31 1
    61    30    70 1
    62    30    71 1
    63    31    72 1
    64    31    73 1
    65    31    74 1
    66    33    34 1
    67    33    38 1
    68    33    75 1
    69    34    35 1
    70    34    76 1
    71    34    77 1
    72    35    36 1
    73    35    78 1
    74    35    79 1
    75    36    37 1
    76    36    39 1
    77    37    38 1
    78    37    80 1
    79    37    81 1
    80    38    82 1
    81    38    83 1
    82    39    40 1
    83    39    84 1
    84    39    85 1
    85    40    41 1
    86    40    44 2
    87    41    42 1
    88    41    86 1
    89    42    43 2
    90    42    87 1
    91    43    44 1
    92    43    88 1
@<TRIPOS>SUBSTRUCTURE
     1 IH4         1 TEMP              0 ****  ****    0 ROOT
