@<TRIPOS>MOLECULE
molecule
   38    39     1     0     0
SMALL
bcc


@<TRIPOS>ATOM
      1 O3           0.0000     0.0000     0.0000 o          1 IH5      -0.834300
      2 C15          1.3420     0.0000     0.0000 c          1 IH5       0.892600
      3 O4           1.9470     0.0000     1.0460 o          1 IH5      -0.834300
      4 C13          2.0950     0.0000    -1.3060 c3         1 IH5      -0.158100
      5 C01          3.5770    -0.0010    -1.0310 ca         1 IH5       0.019700
      6 C11          4.2550    -1.1990    -0.9050 ca         1 IH5      -0.112000
      7 C09          5.6150    -1.2030    -0.6520 ca         1 IH5       0.030400
      8 C07          6.2990    -0.0020    -0.5260 ca         1 IH5       0.060100
      9 O2           7.6350    -0.0020    -0.2790 os         1 IH5      -0.229200
     10 C2           8.4810    -0.0020    -1.3430 ca         1 IH5       0.132100
     11 C12          7.9720    -0.0030    -2.6330 ca         1 IH5      -0.174000
     12 C10          8.8320    -0.0020    -3.7150 ca         1 IH5      -0.167000
     13 C8          10.2040    -0.0020    -3.5100 ca         1 IH5       0.078100
     14 O1          11.0500    -0.0020    -4.5740 oh         1 IH5      -0.514100
     15 C6          10.7130    -0.0010    -2.2190 ca         1 IH5      -0.071300
     16 C4           9.8540     0.0020    -1.1380 ca         1 IH5      -0.129000
     17 C14         12.2040    -0.0010    -1.9970 c3         1 IH5      -0.023400
     18 C16         12.6010     1.2480    -1.2080 c3         1 IH5      -0.084600
     19 C18         12.6010    -1.2500    -1.2080 c3         1 IH5      -0.084600
     20 C05          5.6150     1.2000    -0.6530 ca         1 IH5       0.030400
     21 C03          4.2560     1.1970    -0.9100 ca         1 IH5      -0.112000
     22 Cl5          6.4660     2.7040    -0.4950 cl         1 IH5      -0.114400
     23 Cl6          6.4640    -2.7090    -0.4930 cl         1 IH5      -0.114400
     24 H131         1.8330    -0.8840    -1.8740 hc         1 IH5       0.046700
     25 H132         1.8340     0.8850    -1.8730 hc         1 IH5       0.046700
     26 H11          3.7210    -2.1370    -1.0040 ha         1 IH5       0.154000
     27 H12          6.9010     0.0100    -2.7930 ha         1 IH5       0.152000
     28 H10          8.4350     0.0170    -4.7220 ha         1 IH5       0.129000
     29 HO1         10.6770    -0.5130    -5.2730 ho         1 IH5       0.412000
     30 H4          10.2510     0.0200    -0.1310 ha         1 IH5       0.147000
     31 H14         12.7120    -0.0010    -2.9530 hc         1 IH5       0.067700
     32 H161        12.3000     1.1330    -0.1740 hc         1 IH5       0.033867
     33 H162        12.1090     2.1150    -1.6330 hc         1 IH5       0.033867
     34 H163        13.6750     1.3810    -1.2590 hc         1 IH5       0.033867
     35 H181        13.6800    -1.3490    -1.2090 hc         1 IH5       0.033867
     36 H182        12.2470    -1.1620    -0.1890 hc         1 IH5       0.033867
     37 H183        12.1590    -2.1250    -1.6700 hc         1 IH5       0.033867
     38 H03          3.7220     2.1340    -1.0100 ha         1 IH5       0.154000
@<TRIPOS>BOND
     1     1     2 1
     2     2     3 1
     3     2     4 1
     4     4     5 1
     5     4    24 1
     6     4    25 1
     7     5     6 ar
     8     5    21 ar
     9     6     7 ar
    10     6    26 1
    11     7     8 ar
    12     7    23 1
    13     8     9 1
    14     8    20 ar
    15     9    10 1
    16    10    11 ar
    17    10    16 ar
    18    11    12 ar
    19    11    27 1
    20    12    13 ar
    21    12    28 1
    22    13    14 1
    23    13    15 ar
    24    14    29 1
    25    15    16 ar
    26    15    17 1
    27    16    30 1
    28    17    18 1
    29    17    19 1
    30    17    31 1
    31    18    32 1
    32    18    33 1
    33    18    34 1
    34    19    35 1
    35    19    36 1
    36    19    37 1
    37    20    21 ar
    38    20    22 1
    39    21    38 1
@<TRIPOS>SUBSTRUCTURE
     1 IH5         1 TEMP              0 ****  ****    0 ROOT
