@<TRIPOS>MOLECULE
IH5
   38    39     1     0     0
SMALL
bcc


@<TRIPOS>ATOM
      1 O3          0.4280   -0.0440    0.7220 o         1 IH5     -0.829800
      2 C15         1.2410   -0.6380   -0.0340 c         1 IH5      0.920600
      3 O4          1.4450   -1.8850   -0.0420 o         1 IH5     -0.829800
      4 C13         2.0110    0.2290   -1.0660 c3        1 IH5     -0.189100
      5 C01         3.4790    0.2090   -0.8810 ca        1 IH5      0.010700
      6 C11         4.1500   -1.0090   -0.6880 ca        1 IH5     -0.132000
      7 C09         5.5380   -1.0370   -0.5660 ca        1 IH5      0.019400
      8 C07         6.2810    0.1580   -0.6240 ca        1 IH5      0.041100
      9 O2          7.6540    0.1460   -0.3730 os        1 IH5     -0.232200
     10 C2          8.4750    0.0190   -1.4880 ca        1 IH5      0.110100
     11 C12         8.0110   -0.1410   -2.7970 ca        1 IH5     -0.146000
     12 C10         8.9340   -0.2640   -3.8310 ca        1 IH5     -0.179000
     13 C8         10.3070   -0.2280   -3.5550 ca        1 IH5      0.080100
     14 O1         11.2480   -0.3450   -4.5610 oh        1 IH5     -0.510100
     15 C6         10.7830   -0.0680   -2.2370 ca        1 IH5     -0.072300
     16 C4          9.8510    0.0550   -1.2060 ca        1 IH5     -0.125000
     17 C14        12.2500   -0.0320   -1.9460 c3        1 IH5     -0.017400
     18 C16        12.6480    1.2980   -1.3330 c3        1 IH5     -0.086100
     19 C18        12.6490   -1.1760   -1.0330 c3        1 IH5     -0.086100
     20 C05         5.6070    1.3770   -0.7950 ca        1 IH5      0.019400
     21 C03         4.2160    1.3990   -0.9170 ca        1 IH5     -0.132000
     22 CL5         6.4580    2.8540   -0.8610 cl        1 IH5     -0.103400
     23 CL6         6.3160   -2.5360   -0.3460 cl        1 IH5     -0.103400
     24 H131        1.6210    1.2770   -1.0110 hc        1 IH5      0.046700
     25 H132        1.7710   -0.1860   -2.0800 hc        1 IH5      0.046700
     26 H11         3.5370   -1.9320   -0.6030 ha        1 IH5      0.181000
     27 H12         6.9310   -0.1710   -3.0050 ha        1 IH5      0.157000
     28 H10         8.5830   -0.3910   -4.8650 ha        1 IH5      0.129000
     29 HO1        10.7690   -0.4660   -5.3930 ho        1 IH5      0.411000
     30 H4         10.1830    0.1800   -0.1650 ha        1 IH5      0.150000
     31 H14        12.8120   -0.1490   -2.9180 hc        1 IH5      0.066700
     32 H161       13.7490    1.3200   -1.1500 hc        1 IH5      0.033533
     33 H162       12.1220    1.4580   -0.3610 hc        1 IH5      0.033533
     34 H163       12.3830    2.1370   -2.0210 hc        1 IH5      0.033533
     35 H181       12.1250   -1.0990   -0.0500 hc        1 IH5      0.033533
     36 H182       13.7510   -1.1520   -0.8510 hc        1 IH5      0.033533
     37 H183       12.3850   -2.1550   -1.5000 hc        1 IH5      0.033533
     38 H03         3.6910    2.3600   -1.0380 ha        1 IH5      0.181000
@<TRIPOS>BOND
     1    1    2 1   
     2    2    3 1   
     3    2    4 1   
     4    4    5 1   
     5    4   24 1   
     6    4   25 1   
     7    5    6 ar  
     8    5   21 ar  
     9    6    7 ar  
    10    6   26 1   
    11    7    8 ar  
    12    7   23 1   
    13    8    9 1   
    14    8   20 ar  
    15    9   10 1   
    16   10   11 ar  
    17   10   16 ar  
    18   11   12 ar  
    19   11   27 1   
    20   12   13 ar  
    21   12   28 1   
    22   13   14 1   
    23   13   15 ar  
    24   14   29 1   
    25   15   16 ar  
    26   15   17 1   
    27   16   30 1   
    28   17   18 1   
    29   17   19 1   
    30   17   31 1   
    31   18   32 1   
    32   18   33 1   
    33   18   34 1   
    34   19   35 1   
    35   19   36 1   
    36   19   37 1   
    37   20   21 ar  
    38   20   22 1   
    39   21   38 1   
@<TRIPOS>SUBSTRUCTURE
     1 IH5         1 TEMP              0 ****  ****    0 ROOT
