@<TRIPOS>MOLECULE
IH6
   48    50     1     0     0
SMALL
bcc


@<TRIPOS>ATOM
      1 C1           0.0000     0.0000     0.0000 c3         1 IH6       0.140000
      2 C2           1.4720     0.0000     0.0000 c1         1 IH6      -0.112100
      3 C3           2.6460     0.0000     0.0200 c1         1 IH6      -0.178100
      4 C4           4.1180     0.0240     0.0360 c3         1 IH6       0.341500
      5 O1           4.4740    -0.8830     1.0020 os         1 IH6      -0.314900
      6 C5           5.9210    -1.0190     1.1850 ce         1 IH6       0.185100
      7 C6           6.6900    -0.4970     0.6560 ce         1 IH6      -0.230000
      8 C7           8.0540    -0.3860     0.5770 cf         1 IH6       0.093000
      9 C8           8.7740    -1.3770     1.6410 cf         1 IH6      -0.562200
     10 C9           7.8280    -2.0770     2.3530 c3         1 IH6       0.133500
     11 C10          6.5590    -2.0910     2.3330 c2         1 IH6      -0.099200
     12 S1          10.4960    -1.5620     1.7600 s6         1 IH6       1.240100
     13 O2          10.7580    -1.5830     3.1020 o          1 IH6      -0.508700
     14 O3          11.1660    -0.1500     1.6660 o          1 IH6      -0.552300
     15 N1          11.2130    -2.8730     1.0030 n3         1 IH6      -0.578500
     16 C11         12.4270    -2.3450    -0.0070 c3         1 IH6       0.349800
     17 C12         12.1630    -3.2820    -1.2490 c3         1 IH6      -0.109300
     18 S2          11.7660    -4.7430    -1.1850 ss         1 IH6      -0.215200
     19 C13         10.4560    -4.8220     0.0740 c3         1 IH6      -0.019900
     20 C14         10.6190    -4.2770     1.3340 c3         1 IH6       0.198200
     21 C15          9.4310    -4.2210     1.9070 c2         1 IH6       0.429600
     22 O4           8.3880    -3.5490     1.5700 os         1 IH6      -0.484400
     23 N2           9.2490    -5.1160     3.2280 nu         1 IH6      -0.073200
     24 O5          10.3630    -5.8030     3.6010 oh         1 IH6      -0.501200
     25 C16         10.1250    -6.5700     0.2840 c3         1 IH6       0.008900
     26 C17          9.3340    -4.5140    -0.7440 c3         1 IH6       0.008900
     27 H11         -0.3610    -1.0210     0.0300 hc         1 IH6       0.009033
     28 H12         -0.3610     0.4850    -0.8990 hc         1 IH6       0.009033
     29 H13         -0.3610     0.5360     0.8690 hc         1 IH6       0.009033
     30 H41          4.5100    -0.2790    -0.9270 h1         1 IH6      -0.001300
     31 H42          4.4760     1.0120     0.2970 h1         1 IH6      -0.001300
     32 H6           6.2620    -0.0300    -0.2230 ha         1 IH6       0.091000
     33 H7           8.5650     0.2220    -0.1590 ha         1 IH6       0.122000
     34 H9           8.2340    -2.7070     3.1350 h1         1 IH6       0.057700
     35 H10          5.9520    -2.7910     2.8950 ha         1 IH6       0.123000
     36 H111        13.4030    -2.5320     0.4230 h1         1 IH6       0.043700
     37 H112        12.2940    -1.3020    -0.2680 h1         1 IH6       0.043700
     38 H121        13.0690    -3.2490    -1.8410 h1         1 IH6       0.064700
     39 H122        11.3890    -2.7930    -1.8280 h1         1 IH6       0.064700
     40 H14         11.3150    -4.8640     1.9200 h1         1 IH6       0.098700
     41 HN2          8.5630    -4.8640     3.9120 hn         1 IH6       0.136700
     42 HO5         10.1820    -6.2920     4.3870 ho         1 IH6       0.412000
     43 H161        10.1090    -7.0530    -0.6850 hc         1 IH6       0.021533
     44 H162        10.9020    -7.0130     0.8960 hc         1 IH6       0.021533
     45 H163         9.1650    -6.7010     0.7690 hc         1 IH6       0.021533
     46 H171         9.4650    -4.9640    -1.7200 hc         1 IH6       0.021533
     47 H172         8.4340    -4.9050    -0.2840 hc         1 IH6       0.021533
     48 H173         9.2480    -3.4400    -0.8500 hc         1 IH6       0.021533
@<TRIPOS>BOND
     1     1     2 1   
     2     1    27 1   
     3     1    28 1   
     4     1    29 1   
     5     2     3 3   
     6     3     4 1   
     7     4     5 1   
     8     4    30 1   
     9     4    31 1   
    10     5     6 1   
    11     6     7 1   
    12     6    11 2   
    13     7     8 2   
    14     7    32 1   
    15     8     9 1   
    16     8    33 1   
    17     9    10 1   
    18     9    12 2   
    19    10    11 1   
    20    10    22 1   
    21    10    34 1   
    22    11    35 1   
    23    12    13 1   
    24    12    14 2   
    25    12    15 1   
    26    15    16 1   
    27    15    20 1   
    28    16    17 1   
    29    16    36 1   
    30    16    37 1   
    31    17    18 1   
    32    17    38 1   
    33    17    39 1   
    34    18    19 1   
    35    19    20 1   
    36    19    25 1   
    37    19    26 1   
    38    20    21 1   
    39    20    40 1   
    40    21    22 1   
    41    21    23 2   
    42    23    24 1   
    43    23    41 1   
    44    24    42 1   
    45    25    43 1   
    46    25    44 1   
    47    25    45 1   
    48    26    46 1   
    49    26    47 1   
    50    26    48 1   
@<TRIPOS>SUBSTRUCTURE
     1 IH6         1 TEMP              0 ****  ****    0 ROOT
