@<TRIPOS>MOLECULE
molecule
   27    27     1     0     0
SMALL
bcc


@<TRIPOS>ATOM
      1 OAD          0.0000     0.0000     0.0000 o          1 IH9      -0.706867
      2 SAO          1.4210     0.0000     0.0000 s6         1 IH9       1.253800
      3 OAA          1.7960     0.0000     1.4760 o          1 IH9      -0.706867
      4 OAB          2.1540    -1.0870    -0.5480 o          1 IH9      -0.706867
      5 CAJ          2.0580     1.5780    -0.6280 c3         1 IH9      -0.255600
      6 CAI          1.7390     1.6990    -2.1190 c3         1 IH9       0.179800
      7 NAL          2.2550     2.9760    -2.6290 n7         1 IH9      -0.812200
      8 CAK          1.9670     3.1280    -4.0610 c3         1 IH9       0.197100
      9 CAN          2.5100     4.4470    -4.5470 ca         1 IH9      -0.057300
     10 CAH          3.8000     4.5250    -5.0340 ca         1 IH9      -0.151000
     11 CAG          1.7140     5.5770    -4.5090 ca         1 IH9      -0.114000
     12 CAE          2.2090     6.7890    -4.9540 ca         1 IH9      -0.124000
     13 CAF          3.5000     6.8730    -5.4370 ca         1 IH9      -0.161000
     14 CAM          4.3000     5.7400    -5.4800 ca         1 IH9       0.095100
     15 OAC          5.5700     5.8210    -5.9550 oh         1 IH9      -0.525100
     16 H1           3.1310     1.6170    -0.4830 h1         1 IH9       0.079700
     17 H2           0.6660     1.6590    -2.2630 h1         1 IH9       0.033200
     18 H3           3.2440     3.0200    -2.4820 hn         1 IH9       0.353800
     19 H4           2.4350     2.3200    -4.6110 h1         1 IH9       0.034700
     20 H5           0.8950     3.0980    -4.2190 h1         1 IH9       0.034700
     21 H6           4.4220     3.6380    -5.0670 ha         1 IH9       0.140000
     22 H7           0.7010     5.5130    -4.1310 ha         1 IH9       0.140000
     23 H8           1.5840     7.6740    -4.9210 ha         1 IH9       0.126000
     24 H9           3.8870     7.8230    -5.7840 ha         1 IH9       0.129000
     25 H10          5.5750     5.6210    -6.8760 ho         1 IH9       0.411000
     26 H12          1.5910     2.3950    -0.0910 h1         1 IH9       0.079700
     27 H13          2.2050     0.8810    -2.6550 h1         1 IH9       0.033200
@<TRIPOS>BOND
     1    15    14 1
     2    13    14 ar
     3    13    12 ar
     4    14    10 ar
     5    12    11 ar
     6    10     9 ar
     7    11     9 ar
     8     9     8 1
     9     8     7 1
    10     7     6 1
    11     6     5 1
    12     5     2 1
    13     1     2 1
    14     2     4 1
    15     2     3 1
    16     5    16 1
    17     6    17 1
    18     7    18 1
    19     8    19 1
    20     8    20 1
    21    10    21 1
    22    11    22 1
    23    12    23 1
    24    13    24 1
    25    15    25 1
    26     5    26 1
    27     6    27 1
@<TRIPOS>SUBSTRUCTURE
     1 IH9         1 TEMP              0 ****  ****    0 ROOT
