@<TRIPOS>MOLECULE
IH9
   27    27     1     0     0
SMALL
bcc


@<TRIPOS>ATOM
      1 OAD          0.0000     0.0000     0.0000 o          1 IH9      -0.659867
      2 SAO          1.4210     0.0000     0.0000 s6         1 IH9       0.956800
      3 OAA          1.7960     0.0000     1.4760 o          1 IH9      -0.659867
      4 OAB          2.1540    -1.0870    -0.5480 o          1 IH9      -0.659867
      5 CAJ          2.0580     1.5780    -0.6280 c3         1 IH9      -0.055600
      6 CAI          1.7390     1.6990    -2.1190 c3         1 IH9       0.174800
      7 NAL          2.2550     2.9760    -2.6290 n7         1 IH9      -0.595200
      8 CAK          1.9670     3.1280    -4.0610 c3         1 IH9       0.197100
      9 CAN          2.5100     4.4470    -4.5470 ca         1 IH9      -0.058300
     10 CAH          3.8000     4.5250    -5.0340 ca         1 IH9      -0.136000
     11 CAG          1.7140     5.5770    -4.5090 ca         1 IH9      -0.094000
     12 CAE          2.2090     6.7890    -4.9540 ca         1 IH9      -0.090000
     13 CAF          3.5000     6.8730    -5.4370 ca         1 IH9      -0.149000
     14 CAM          4.3000     5.7400    -5.4800 ca         1 IH9       0.115100
     15 OAC          5.5700     5.8210    -5.9550 oh         1 IH9      -0.503100
     16 H1           3.1310     1.6170    -0.4830 h1         1 IH9       0.052200
     17 H2           0.6660     1.6590    -2.2630 h1         1 IH9       0.010200
     18 H3           3.2440     3.0200    -2.4820 hn         1 IH9       0.252800
     19 H4           2.4350     2.3200    -4.6110 h1         1 IH9       0.006700
     20 H5           0.8950     3.0980    -4.2190 h1         1 IH9       0.006700
     21 H6           4.4220     3.6380    -5.0670 ha         1 IH9       0.116000
     22 H7           0.7010     5.5130    -4.1310 ha         1 IH9       0.113000
     23 H8           1.5840     7.6740    -4.9210 ha         1 IH9       0.097000
     24 H9           3.8870     7.8230    -5.7840 ha         1 IH9       0.105000
     25 H10          5.5750     5.6210    -6.8760 ho         1 IH9       0.395000
     26 H12          1.5910     2.3950    -0.0910 h1         1 IH9       0.052200
     27 H13          2.2050     0.8810    -2.6550 h1         1 IH9       0.010200
@<TRIPOS>BOND
     1     1     2 1   
     2     2     3 1   
     3     2     4 1   
     4     2     5 1   
     5     5     6 1   
     6     5    16 1   
     7     5    26 1   
     8     6     7 1   
     9     6    17 1   
    10     6    27 1   
    11     7     8 1   
    12     7    18 1   
    13     8     9 1   
    14     8    19 1   
    15     8    20 1   
    16     9    10 ar  
    17     9    11 ar  
    18    10    14 ar  
    19    10    21 1   
    20    11    12 ar  
    21    11    22 1   
    22    12    13 ar  
    23    12    23 1   
    24    13    14 ar  
    25    13    24 1   
    26    14    15 1   
    27    15    25 1   
@<TRIPOS>SUBSTRUCTURE
     1 IH9         1 TEMP              0 ****  ****    0 ROOT
