@<TRIPOS>MOLECULE
molecule
   50    53     1     0     0
SMALL
bcc


@<TRIPOS>ATOM
      1 O27          0.0000     0.0000     0.0000 o          1 IHA      -0.822800
      2 C25          1.3420     0.0000     0.0000 c          1 IHA       0.895600
      3 O26          1.9460     0.0000     1.0460 o          1 IHA      -0.822800
      4 C24          2.0950     0.0000    -1.3050 c3         1 IHA       0.016400
      5 O23          3.5010     0.0000    -1.0440 os         1 IHA      -0.279900
      6 C22          4.3290    -0.0000    -2.1230 ca         1 IHA       0.167100
      7 C21          5.6920    -0.0050    -1.9370 ca         1 IHA      -0.131000
      8 C28          3.7900     0.0000    -3.4070 ca         1 IHA      -0.194000
      9 C29          4.6230    -0.0010    -4.5020 ca         1 IHA      -0.068000
     10 C30          6.0060    -0.0000    -4.3310 ca         1 IHA      -0.091100
     11 C20          6.5610    -0.0110    -3.0470 ca         1 IHA       0.142400
     12 N19          7.9070    -0.0090    -3.0840 nc         1 IHA      -0.556100
     13 S31          7.3280    -0.0010    -5.4950 ss         1 IHA      -0.143100
     14 C18          8.4740     0.0030    -4.2300 cd         1 IHA       0.352200
     15 C17          9.9660     0.0070    -4.4390 c3         1 IHA       0.246500
     16 N16         10.4530    -1.3730    -4.5180 nu         1 IHA      -0.885900
     17 C15         11.8000    -1.6220    -4.7090 ca         1 IHA       0.878900
     18 N14         12.6460    -0.6050    -4.8180 nb         1 IHA      -0.443000
     19 N13         13.9060    -0.7930    -4.9960 nb         1 IHA      -0.246000
     20 C12         14.3990    -2.0140    -5.0750 ca         1 IHA       0.171900
     21 N32         12.2320    -2.8740    -4.7750 nb         1 IHA      -0.741000
     22 C11         13.5310    -3.1080    -4.9630 cp         1 IHA       0.475500
     23 C10         14.0470    -4.4920    -5.0420 cp         1 IHA      -0.221500
     24 C3          13.6680    -5.4400    -4.0830 ca         1 IHA       0.207100
     25 O2          12.8260    -5.0910    -3.0770 os         1 IHA      -0.308400
     26 C1          12.4830    -6.1100    -2.1360 c3         1 IHA       0.128200
     27 C7          14.9110    -4.8640    -6.0770 ca         1 IHA       0.207100
     28 O8          15.2810    -3.9550    -7.0140 os         1 IHA      -0.308400
     29 C9          16.1660    -4.4060    -8.0430 c3         1 IHA       0.128200
     30 C6          15.3890    -6.1640    -6.1420 ca         1 IHA      -0.268000
     31 C5          15.0140    -7.0910    -5.1880 ca         1 IHA      -0.038000
     32 C4          14.1570    -6.7340    -4.1650 ca         1 IHA      -0.268000
     33 H2           1.8340     0.8850    -1.8730 h1         1 IHA       0.026700
     34 H3           1.8340    -0.8840    -1.8740 h1         1 IHA       0.026700
     35 H4           6.0990    -0.0040    -0.9330 ha         1 IHA       0.163000
     36 H5           2.7160     0.0040    -3.5440 ha         1 IHA       0.155000
     37 H6           4.2020    -0.0010    -5.5000 ha         1 IHA       0.127000
     38 H7          10.4450     0.5110    -3.6090 h1         1 IHA       0.071700
     39 H8          10.2000     0.5260    -5.3610 h1         1 IHA       0.071700
     40 H9           9.8090    -2.1360    -4.4450 hn         1 IHA       0.466800
     41 H10         15.4610    -2.1690    -5.2260 h4         1 IHA       0.040100
     42 H11         11.9980    -6.9300    -2.6520 h1         1 IHA       0.044033
     43 H12         13.3830    -6.4700    -1.6510 h1         1 IHA       0.044033
     44 H13         11.8100    -5.7020    -1.3910 h1         1 IHA       0.044033
     45 H14         15.7010    -5.2170    -8.5900 h1         1 IHA       0.044033
     46 H15         16.3790    -3.5880    -8.7210 h1         1 IHA       0.044033
     47 H16         17.0900    -4.7550    -7.5970 h1         1 IHA       0.044033
     48 H17         16.0600    -6.4530    -6.9420 ha         1 IHA       0.138000
     49 H18         15.3910    -8.1050    -5.2450 ha         1 IHA       0.130000
     50 H19         13.8660    -7.4680    -3.4230 ha         1 IHA       0.138000
@<TRIPOS>BOND
     1    15    16 1
     2    15    14 1
     3    16    17 1
     4    14    12 2
     5    14    13 1
     6    12    11 1
     7    13    10 1
     8    17    18 ar
     9    17    21 ar
    10    11    10 ar
    11    11     7 ar
    12    18    19 ar
    13    10     9 ar
    14     7     6 ar
    15    21    22 ar
    16     9     8 ar
    17     6     8 ar
    18     6     5 1
    19    19    20 ar
    20    22    20 ar
    21    22    23 1
    22     5     4 1
    23     4     2 1
    24     3     2 1
    25     2     1 1
    26    25    24 1
    27    25    26 1
    28    23    24 ar
    29    23    27 ar
    30    28    27 1
    31    28    29 1
    32    24    32 ar
    33    27    30 ar
    34    32    31 ar
    35    30    31 ar
    36     4    33 1
    37     4    34 1
    38     7    35 1
    39     8    36 1
    40     9    37 1
    41    15    38 1
    42    15    39 1
    43    16    40 1
    44    20    41 1
    45    26    42 1
    46    26    43 1
    47    26    44 1
    48    29    45 1
    49    29    46 1
    50    29    47 1
    51    30    48 1
    52    31    49 1
    53    32    50 1
@<TRIPOS>SUBSTRUCTURE
     1 IHA         1 TEMP              0 ****  ****    0 ROOT
