@<TRIPOS>MOLECULE
IHA
   50    53     1     0     0
SMALL
bcc


@<TRIPOS>ATOM
      1 O27          0.0000     0.0000     0.0000 o          1 IHA      -0.878800
      2 C25          1.3420     0.0000     0.0000 c          1 IHA       0.975600
      3 O26          1.9460     0.0000     1.0460 o          1 IHA      -0.878800
      4 C24          2.0950     0.0000    -1.3050 c3         1 IHA       0.080400
      5 O23          3.5010     0.0000    -1.0440 os         1 IHA      -0.251900
      6 C22          4.3290    -0.0000    -2.1230 ca         1 IHA       0.176100
      7 C21          5.6920    -0.0050    -1.9370 ca         1 IHA      -0.107000
      8 C28          3.7900     0.0000    -3.4070 ca         1 IHA      -0.184000
      9 C29          4.6230    -0.0010    -4.5020 ca         1 IHA      -0.022000
     10 C30          6.0060    -0.0000    -4.3310 ca         1 IHA      -0.062100
     11 C20          6.5610    -0.0110    -3.0470 ca         1 IHA       0.087400
     12 N19          7.9070    -0.0090    -3.0840 nc         1 IHA      -0.412100
     13 S31          7.3280    -0.0010    -5.4950 ss         1 IHA      -0.226100
     14 C18          8.4740     0.0030    -4.2300 cd         1 IHA       0.312200
     15 C17          9.9660     0.0070    -4.4390 c3         1 IHA       0.176500
     16 N16         10.4530    -1.3730    -4.5180 nu         1 IHA      -0.459900
     17 C15         11.8000    -1.6220    -4.7090 ca         1 IHA       0.681900
     18 N14         12.6460    -0.6050    -4.8180 nb         1 IHA      -0.429000
     19 N13         13.9060    -0.7930    -4.9960 nb         1 IHA      -0.203000
     20 C12         14.3990    -2.0140    -5.0750 ca         1 IHA       0.163900
     21 N32         12.2320    -2.8740    -4.7750 nb         1 IHA      -0.646000
     22 C11         13.5310    -3.1080    -4.9630 cp         1 IHA       0.442500
     23 C10         14.0470    -4.4920    -5.0420 cp         1 IHA      -0.240500
     24 C3          13.6680    -5.4400    -4.0830 ca         1 IHA       0.219600
     25 O2          12.8260    -5.0910    -3.0770 os         1 IHA      -0.291400
     26 C1          12.4830    -6.1100    -2.1360 c3         1 IHA       0.242200
     27 C7          14.9110    -4.8640    -6.0770 ca         1 IHA       0.219600
     28 O8          15.2810    -3.9550    -7.0140 os         1 IHA      -0.291400
     29 C9          16.1660    -4.4060    -8.0430 c3         1 IHA       0.242200
     30 C6          15.3890    -6.1640    -6.1420 ca         1 IHA      -0.264500
     31 C5          15.0140    -7.0910    -5.1880 ca         1 IHA       0.000000
     32 C4          14.1570    -6.7340    -4.1650 ca         1 IHA      -0.264500
     33 H2           1.8340     0.8850    -1.8730 h1         1 IHA      -0.003800
     34 H3           1.8340    -0.8840    -1.8740 h1         1 IHA      -0.003800
     35 H4           6.0990    -0.0040    -0.9330 ha         1 IHA       0.132000
     36 H5           2.7160     0.0040    -3.5440 ha         1 IHA       0.138000
     37 H6           4.2020    -0.0010    -5.5000 ha         1 IHA       0.102000
     38 H7          10.4450     0.5110    -3.6090 h1         1 IHA       0.038700
     39 H8          10.2000     0.5260    -5.3610 h1         1 IHA       0.038700
     40 H9           9.8090    -2.1360    -4.4450 hn         1 IHA       0.309800
     41 H10         15.4610    -2.1690    -5.2260 h4         1 IHA       0.005100
     42 H11         11.9980    -6.9300    -2.6520 h1         1 IHA      -0.000967
     43 H12         13.3830    -6.4700    -1.6510 h1         1 IHA      -0.000967
     44 H13         11.8100    -5.7020    -1.3910 h1         1 IHA      -0.000967
     45 H14         15.7010    -5.2170    -8.5900 h1         1 IHA      -0.000967
     46 H15         16.3790    -3.5880    -8.7210 h1         1 IHA      -0.000967
     47 H16         17.0900    -4.7550    -7.5970 h1         1 IHA      -0.000967
     48 H17         16.0600    -6.4530    -6.9420 ha         1 IHA       0.124000
     49 H18         15.3910    -8.1050    -5.2450 ha         1 IHA       0.096000
     50 H19         13.8660    -7.4680    -3.4230 ha         1 IHA       0.124000
@<TRIPOS>BOND
     1     1     2 1   
     2     2     3 1   
     3     2     4 1   
     4     4     5 1   
     5     4    33 1   
     6     4    34 1   
     7     5     6 1   
     8     6     7 ar  
     9     6     8 ar  
    10     7    11 ar  
    11     7    35 1   
    12     8     9 ar  
    13     8    36 1   
    14     9    10 ar  
    15     9    37 1   
    16    10    11 ar  
    17    10    13 1   
    18    11    12 1   
    19    12    14 2   
    20    13    14 1   
    21    14    15 1   
    22    15    16 1   
    23    15    38 1   
    24    15    39 1   
    25    16    17 1   
    26    16    40 1   
    27    17    18 ar  
    28    17    21 ar  
    29    18    19 ar  
    30    19    20 ar  
    31    20    22 ar  
    32    20    41 1   
    33    21    22 ar  
    34    22    23 1   
    35    23    24 ar  
    36    23    27 ar  
    37    24    25 1   
    38    24    32 ar  
    39    25    26 1   
    40    26    42 1   
    41    26    43 1   
    42    26    44 1   
    43    27    28 1   
    44    27    30 ar  
    45    28    29 1   
    46    29    45 1   
    47    29    46 1   
    48    29    47 1   
    49    30    31 ar  
    50    30    48 1   
    51    31    32 ar  
    52    31    49 1   
    53    32    50 1   
@<TRIPOS>SUBSTRUCTURE
     1 IHA         1 TEMP              0 ****  ****    0 ROOT
