@<TRIPOS>MOLECULE
molecule
   15    15     1     0     0
SMALL
bcc


@<TRIPOS>ATOM
      1 C1           0.0000     0.0000     0.0000 ca         1 IHB      -0.106600
      2 C2           1.3980     0.0000     0.0000 ca         1 IHB      -0.057000
      3 C3           2.0840     0.0000     1.1920 ca         1 IHB       0.020900
      4 I3           4.1790     0.0050     1.1930 i          1 IHB      -0.224900
      5 C4           1.3920    -0.0090     2.3970 ca         1 IHB       0.092100
      6 O4           2.0710    -0.0140     3.5710 oh         1 IHB      -0.527100
      7 C5           0.0010    -0.0140     2.4030 ca         1 IHB      -0.182000
      8 C6          -0.6940    -0.0090     1.2140 ca         1 IHB      -0.084000
      9 C7          -0.7410     0.0070    -1.2740 c          1 IHB       0.881200
     10 O1          -1.9560     0.0030    -1.2710 o          1 IHB      -0.831300
     11 O2          -0.0700     0.0150    -2.4420 o          1 IHB      -0.831300
     12 H2           1.9400     0.0070    -0.9380 ha         1 IHB       0.170000
     13 HO4          2.1890     0.8730     3.8700 ho         1 IHB       0.406000
     14 H5          -0.5360    -0.0210     3.3430 ha         1 IHB       0.121000
     15 H6          -1.7770    -0.0110     1.2200 ha         1 IHB       0.153000
@<TRIPOS>BOND
     1     1     2 ar
     2     1     8 ar
     3     1     9 1
     4     2     3 ar
     5     2    12 1
     6     3     4 1
     7     3     5 ar
     8     5     6 1
     9     5     7 ar
    10     6    13 1
    11     7     8 ar
    12     7    14 1
    13     8    15 1
    14     9    10 1
    15     9    11 1
@<TRIPOS>SUBSTRUCTURE
     1 IHB         1 TEMP              0 ****  ****    0 ROOT
