@<TRIPOS>MOLECULE
IHB
   15    15     1     0     0
SMALL
bcc


@<TRIPOS>ATOM
      1 C1          0.0010    0.0070   -0.0060 ca        1 IHB     -0.159600
      2 C2          1.3920    0.0950    0.0480 ca        1 IHB     -0.047000
      3 C3          2.0620    0.1470    1.2740 ca        1 IHB     -0.066100
      4 I3          4.0870    0.2730    1.2660 i         1 IHB     -0.209900
      5 C4          1.3130    0.1110    2.4590 ca        1 IHB      0.123100
      6 O4          1.8600    0.1560    3.7270 oh        1 IHB     -0.516100
      7 C5         -0.0890    0.0230    2.4160 ca        1 IHB     -0.190000
      8 C6         -0.7320   -0.0280    1.1840 ca        1 IHB     -0.059000
      9 C7         -0.7140   -0.0490   -1.3500 c         1 IHB      0.912200
     10 O1         -1.9750   -0.1270   -1.3400 o         1 IHB     -0.827300
     11 O2         -0.0070   -0.0150   -2.3960 o         1 IHB     -0.827300
     12 H2          1.9400    0.1200   -0.9100 ha        1 IHB      0.168000
     13 HO4         2.8220    0.2150    3.6320 ho        1 IHB      0.411000
     14 H5         -0.6510   -0.0040    3.3580 ha        1 IHB      0.129000
     15 H6         -1.8310   -0.0970    1.1180 ha        1 IHB      0.159000
@<TRIPOS>BOND
     1    1    2 ar  
     2    1    8 ar  
     3    1    9 1   
     4    2    3 ar  
     5    2   12 1   
     6    3    4 1   
     7    3    5 ar  
     8    5    6 1   
     9    5    7 ar  
    10    6   13 1   
    11    7    8 ar  
    12    7   14 1   
    13    8   15 1   
    14    9   10 1   
    15    9   11 1   
@<TRIPOS>SUBSTRUCTURE
     1 IHB         1 TEMP              0 ****  ****    0 ROOT
