@<TRIPOS>MOLECULE
IHC
   42    45     1     0     0
SMALL
bcc


@<TRIPOS>ATOM
      1 Cl1          0.0000     0.0000     0.0000 cl         1 IHC       0.004600
      2 Cl2          4.7090     0.0070     2.6950 cl         1 IHC       0.004600
      3 C1         -10.0620     6.4180     4.2650 c          1 IHC       0.975600
      4 O1         -10.8480     7.5020     4.3480 o          1 IHC      -0.877800
      5 C2          -8.6240     6.4940     4.7090 c3         1 IHC       0.079400
      6 N2           0.4000    -0.0290     4.8130 nb         1 IHC      -0.418000
      7 O2         -10.5080     5.3800     3.8370 o          1 IHC      -0.877800
      8 C3          -6.6910     5.1170     4.8770 ca         1 IHC       0.176100
      9 N3           1.3260    -0.9030     4.6240 nb         1 IHC      -0.193000
     10 O3          -8.0000     5.2210     4.5230 os         1 IHC      -0.250900
     11 C4          -6.0270     6.2240     5.4000 ca         1 IHC      -0.182000
     12 N4           0.7350     0.8930     2.7250 nb         1 IHC      -0.643000
     13 C5          -4.7040     6.1240     5.7660 ca         1 IHC      -0.022000
     14 N5          -3.8640     2.7280     5.0210 nc         1 IHC      -0.410100
     15 C6          -4.0250     4.9170     5.6140 ca         1 IHC      -0.061100
     16 C7          -2.6570     2.8700     5.4230 cd         1 IHC       0.306200
     17 C8          -1.6240     1.7730     5.4100 c3         1 IHC       0.175500
     18 C9           0.0930     0.8690     3.8850 ca         1 IHC       0.681900
     19 C10          2.0010    -0.9320     3.4900 ca         1 IHC       0.159900
     20 C11          1.6980     0.0020     2.4930 cp         1 IHC       0.406500
     21 C12          2.4340     0.0000     1.2070 cp         1 IHC      -0.145500
     22 C13          1.7350     0.0000     0.0000 ca         1 IHC      -0.007100
     23 C14          2.4280    -0.0020    -1.1950 ca         1 IHC      -0.106500
     24 C15          3.8110    -0.0020    -1.1970 ca         1 IHC      -0.073000
     25 C16          4.5100    -0.0020    -0.0040 ca         1 IHC      -0.106500
     26 C17          3.8300     0.0050     1.1980 ca         1 IHC      -0.007100
     27 C18         -4.6800     3.7970     5.0910 ca         1 IHC       0.086400
     28 C19         -6.0350     3.9180     4.7220 ca         1 IHC      -0.106000
     29 S           -2.3640     4.4580     5.9750 ss         1 IHC      -0.223100
     30 H1          -1.1470     2.4700     3.4350 hn         1 IHC       0.311800
     31 H3          -8.5830     6.7660     5.7570 h1         1 IHC      -0.003300
     32 H4          -8.1030     7.2410     4.1220 h1         1 IHC      -0.003300
     33 H5          -6.5510     7.1650     5.5190 ha         1 IHC       0.139000
     34 H6          -4.1900     6.9860     6.1720 ha         1 IHC       0.102000
     35 H7          -0.9210     1.9290     6.2180 h1         1 IHC       0.039700
     36 H8          -2.1140     0.8150     5.5360 h1         1 IHC       0.039700
     37 H9           2.7790    -1.6690     3.3350 h4         1 IHC       0.008100
     38 H10          1.8860    -0.0020    -2.1340 ha         1 IHC       0.117000
     39 H11          4.3490    -0.0060    -2.1370 ha         1 IHC       0.106000
     40 H12          5.5940    -0.0020    -0.0130 ha         1 IHC       0.117000
     41 H13         -6.5610     3.0630     4.3150 ha         1 IHC       0.132000
     42 N1          -0.9100     1.7910     4.1310 nu         1 IHC      -0.450900
@<TRIPOS>BOND
     1     1    22 1   
     2     2    26 1   
     3     3     4 1   
     4     3     5 1   
     5     3     7 1   
     6     5    10 1   
     7     5    31 1   
     8     5    32 1   
     9     6     9 ar  
    10     6    18 ar  
    11     8    10 1   
    12     8    11 ar  
    13     8    28 ar  
    14     9    19 ar  
    15    11    13 ar  
    16    11    33 1   
    17    12    18 ar  
    18    12    20 ar  
    19    13    15 ar  
    20    13    34 1   
    21    14    16 2   
    22    14    27 1   
    23    15    27 ar  
    24    15    29 1   
    25    16    17 1   
    26    16    29 1   
    27    17    35 1   
    28    17    36 1   
    29    17    42 1   
    30    18    42 1   
    31    19    20 ar  
    32    19    37 1   
    33    20    21 1   
    34    21    22 ar  
    35    21    26 ar  
    36    22    23 ar  
    37    23    24 ar  
    38    23    38 1   
    39    24    25 ar  
    40    24    39 1   
    41    25    26 ar  
    42    25    40 1   
    43    27    28 ar  
    44    28    41 1   
    45    30    42 1   
@<TRIPOS>SUBSTRUCTURE
     1 IHC         1 TEMP              0 ****  ****    0 ROOT
