@<TRIPOS>MOLECULE
molecule
   50    49     1     0     0
SMALL
bcc


@<TRIPOS>ATOM
      1 C17          0.0000     0.0000     0.0000 c3         1 IHD      -0.087100
      2 C16          1.5210     0.0000     0.0000 c3         1 IHD      -0.079400
      3 C15          2.1330     0.0000     1.4030 c3         1 IHD      -0.078400
      4 C14          3.6620     0.0500     1.4620 c3         1 IHD      -0.076400
      5 C13          4.2200    -0.0400     2.8830 c3         1 IHD      -0.074400
      6 C12          5.7500    -0.0120     2.8790 c3         1 IHD      -0.075400
      7 C11          6.3700    -0.0870     4.2780 c3         1 IHD      -0.077400
      8 C10          7.9010    -0.1170     4.3300 c3         1 IHD      -0.073400
      9 C9           8.4610    -0.1050     5.7550 c3         1 IHD      -0.073400
     10 C8           9.9920    -0.1470     5.8050 c3         1 IHD      -0.077400
     11 C7          10.6120    -0.2000     7.2050 c3         1 IHD      -0.076400
     12 C6          12.1360    -0.3270     7.1960 c3         1 IHD      -0.076400
     13 C5          12.6990    -0.3420     8.6200 c3         1 IHD      -0.075400
     14 C4          14.2250    -0.4360     8.6110 c3         1 IHD      -0.079400
     15 C3          14.8440    -0.4390    10.0120 c3         1 IHD      -0.079400
     16 C2          16.3710    -0.5020     9.9940 c3         1 IHD       0.101500
     17 I1          17.1470    -0.5150    11.9920 i          1 IHD      -0.273900
     18 H171        -0.3610    -0.0120    -1.0210 hc         1 IHD       0.033367
     19 H172        -0.3610     0.8900     0.5010 hc         1 IHD       0.033367
     20 H173        -0.3610    -0.8790     0.5210 hc         1 IHD       0.033367
     21 H161         1.8670    -0.8800    -0.5280 hc         1 IHD       0.036700
     22 H162         1.8670     0.8800    -0.5280 hc         1 IHD       0.036700
     23 H151         1.7460     0.8580     1.9390 hc         1 IHD       0.035700
     24 H152         1.8040    -0.8970     1.9140 hc         1 IHD       0.035700
     25 H141         3.9960     0.9790     1.0160 hc         1 IHD       0.037700
     26 H142         4.0580    -0.7750     0.8820 hc         1 IHD       0.037700
     27 H131         3.8510     0.7980     3.4630 hc         1 IHD       0.039700
     28 H132         3.8830    -0.9630     3.3400 hc         1 IHD       0.039700
     29 H121         6.1090    -0.8510     2.2960 hc         1 IHD       0.037700
     30 H122         6.0780     0.9050     2.4040 hc         1 IHD       0.037700
     31 H111         6.0300     0.7730     4.8430 hc         1 IHD       0.036700
     32 H112         5.9980    -0.9810     4.7640 hc         1 IHD       0.036700
     33 H101         8.2830     0.7460     3.7990 hc         1 IHD       0.037700
     34 H102         8.2470    -1.0140     3.8290 hc         1 IHD       0.037700
     35 H91          8.1220     0.7950     6.2530 hc         1 IHD       0.037700
     36 H92          8.0730    -0.9650     6.2870 hc         1 IHD       0.037700
     37 H81         10.3700     0.7340     5.3020 hc         1 IHD       0.036700
     38 H82         10.3240    -1.0200     5.2560 hc         1 IHD       0.036700
     39 H71         10.3440     0.7050     7.7360 hc         1 IHD       0.038700
     40 H72         10.1970    -1.0490     7.7350 hc         1 IHD       0.038700
     41 H61         12.5590     0.5120     6.6560 hc         1 IHD       0.040700
     42 H62         12.4130    -1.2470     6.6950 hc         1 IHD       0.040700
     43 H51         12.4020     0.5680     9.1280 hc         1 IHD       0.041700
     44 H52         12.2940    -1.1940     9.1530 hc         1 IHD       0.041700
     45 H41         14.5130    -1.3490     8.1040 hc         1 IHD       0.039700
     46 H42         14.6210     0.4080     8.0600 hc         1 IHD       0.039700
     47 H31         14.5400     0.4630    10.5290 hc         1 IHD       0.050700
     48 H32         14.4670    -1.2960    10.5570 hc         1 IHD       0.050700
     49 H21         16.6860    -1.4050     9.4840 h1         1 IHD       0.068700
     50 H22         16.7590     0.3600     9.4660 h1         1 IHD       0.068700
@<TRIPOS>BOND
     1     1     2 1
     2     1    18 1
     3     1    19 1
     4     1    20 1
     5     2     3 1
     6     2    21 1
     7     2    22 1
     8     3     4 1
     9     3    23 1
    10     3    24 1
    11     4     5 1
    12     4    25 1
    13     4    26 1
    14     5     6 1
    15     5    27 1
    16     5    28 1
    17     6     7 1
    18     6    29 1
    19     6    30 1
    20     7     8 1
    21     7    31 1
    22     7    32 1
    23     8     9 1
    24     8    33 1
    25     8    34 1
    26     9    10 1
    27     9    35 1
    28     9    36 1
    29    10    11 1
    30    10    37 1
    31    10    38 1
    32    11    12 1
    33    11    39 1
    34    11    40 1
    35    12    13 1
    36    12    41 1
    37    12    42 1
    38    13    14 1
    39    13    43 1
    40    13    44 1
    41    14    15 1
    42    14    45 1
    43    14    46 1
    44    15    16 1
    45    15    47 1
    46    15    48 1
    47    16    17 1
    48    16    49 1
    49    16    50 1
@<TRIPOS>SUBSTRUCTURE
     1 IHD         1 TEMP              0 ****  ****    0 ROOT
