@<TRIPOS>MOLECULE
IHD
   50    49     1     0     0
SMALL
bcc


@<TRIPOS>ATOM
      1 C17         0.1910    0.0840    0.1250 c3        1 IHD     -0.092100
      2 C16         1.6970    0.0490    0.1240 c3        1 IHD     -0.080400
      3 C15         2.2540    0.0190    1.5310 c3        1 IHD     -0.079400
      4 C14         3.7670   -0.0170    1.5240 c3        1 IHD     -0.079400
      5 C13         4.3220   -0.0470    2.9320 c3        1 IHD     -0.079400
      6 C12         5.8350   -0.0830    2.9250 c3        1 IHD     -0.079400
      7 C11         6.3910   -0.1140    4.3330 c3        1 IHD     -0.079400
      8 C10         7.9040   -0.1510    4.3260 c3        1 IHD     -0.079400
      9 C9          8.4600   -0.1830    5.7340 c3        1 IHD     -0.079400
     10 C8          9.9730   -0.2220    5.7260 c3        1 IHD     -0.079400
     11 C7         10.5280   -0.2540    7.1340 c3        1 IHD     -0.079400
     12 C6         12.0410   -0.2940    7.1270 c3        1 IHD     -0.079400
     13 C5         12.5960   -0.3260    8.5350 c3        1 IHD     -0.078400
     14 C4         14.1090   -0.3680    8.5270 c3        1 IHD     -0.080400
     15 C3         14.6610   -0.4000    9.9390 c3        1 IHD     -0.076400
     16 C2         16.1650   -0.4410    9.9190 c3        1 IHD      0.068500
     17 I1         17.0050   -0.4860   11.8090 i         1 IHD     -0.253900
     18 H171       -0.1990    0.1050   -0.9210 hc        1 IHD      0.032700
     19 H172       -0.2250   -0.8180    0.6370 hc        1 IHD      0.032700
     20 H173       -0.1820    0.9910    0.6590 hc        1 IHD      0.032700
     21 H161        2.0940    0.9490   -0.4160 hc        1 IHD      0.038700
     22 H162        2.0520   -0.8560   -0.4380 hc        1 IHD      0.038700
     23 H151        1.9010    0.9230    2.0940 hc        1 IHD      0.039700
     24 H152        1.8590   -0.8810    2.0720 hc        1 IHD      0.039700
     25 H141        4.1190   -0.9210    0.9620 hc        1 IHD      0.039700
     26 H142        4.1620    0.8830    0.9830 hc        1 IHD      0.039700
     27 H131        3.9700    0.8580    3.4950 hc        1 IHD      0.039700
     28 H132        3.9270   -0.9460    3.4730 hc        1 IHD      0.039700
     29 H121        6.1880   -0.9870    2.3620 hc        1 IHD      0.039700
     30 H122        6.2310    0.8180    2.3850 hc        1 IHD      0.039700
     31 H111        5.9950   -1.0130    4.8740 hc        1 IHD      0.039700
     32 H112        6.0400    0.7910    4.8960 hc        1 IHD      0.039700
     33 H101        8.2550   -1.0560    3.7630 hc        1 IHD      0.039700
     34 H102        8.3000    0.7490    3.7850 hc        1 IHD      0.039700
     35 H91         8.0630   -1.0820    6.2740 hc        1 IHD      0.039700
     36 H92         8.1100    0.7230    6.2960 hc        1 IHD      0.039700
     37 H81        10.3700    0.6770    5.1850 hc        1 IHD      0.039700
     38 H82        10.3230   -1.1270    5.1630 hc        1 IHD      0.039700
     39 H71        10.1300   -1.1530    7.6750 hc        1 IHD      0.040700
     40 H72        10.1790    0.6520    7.6970 hc        1 IHD      0.040700
     41 H61        12.3910   -1.2000    6.5640 hc        1 IHD      0.039700
     42 H62        12.4390    0.6050    6.5860 hc        1 IHD      0.039700
     43 H51        12.2470    0.5790    9.0970 hc        1 IHD      0.041700
     44 H52        12.1980   -1.2250    9.0760 hc        1 IHD      0.041700
     45 H41        14.4580   -1.2740    7.9650 hc        1 IHD      0.041700
     46 H42        14.5080    0.5310    7.9870 hc        1 IHD      0.041700
     47 H31        14.2550   -1.2990   10.4730 hc        1 IHD      0.053700
     48 H32        14.3050    0.5080   10.4950 hc        1 IHD      0.053700
     49 H21        16.5750    0.4580    9.4060 h1        1 IHD      0.071700
     50 H22        16.5250   -1.3500    9.3860 h1        1 IHD      0.071700
@<TRIPOS>BOND
     1    1    2 1   
     2    1   18 1   
     3    1   19 1   
     4    1   20 1   
     5    2    3 1   
     6    2   21 1   
     7    2   22 1   
     8    3    4 1   
     9    3   23 1   
    10    3   24 1   
    11    4    5 1   
    12    4   25 1   
    13    4   26 1   
    14    5    6 1   
    15    5   27 1   
    16    5   28 1   
    17    6    7 1   
    18    6   29 1   
    19    6   30 1   
    20    7    8 1   
    21    7   31 1   
    22    7   32 1   
    23    8    9 1   
    24    8   33 1   
    25    8   34 1   
    26    9   10 1   
    27    9   35 1   
    28    9   36 1   
    29   10   11 1   
    30   10   37 1   
    31   10   38 1   
    32   11   12 1   
    33   11   39 1   
    34   11   40 1   
    35   12   13 1   
    36   12   41 1   
    37   12   42 1   
    38   13   14 1   
    39   13   43 1   
    40   13   44 1   
    41   14   15 1   
    42   14   45 1   
    43   14   46 1   
    44   15   16 1   
    45   15   47 1   
    46   15   48 1   
    47   16   17 1   
    48   16   49 1   
    49   16   50 1   
@<TRIPOS>SUBSTRUCTURE
     1 IHD         1 TEMP              0 ****  ****    0 ROOT
