@<TRIPOS>MOLECULE
molecule
   55    58     1     0     0
SMALL
bcc


@<TRIPOS>ATOM
      1 C01          0.0000     0.0000     0.0000 c3         1 IHE       0.131300
      2 C02          1.5300     1.2310     2.0110 c3         1 IHE       0.136300
      3 N03          2.0230     0.0000     1.3820 n3         1 IHE      -0.674600
      4 C04          1.5300     0.0000     0.0000 c3         1 IHE       0.136300
      5 C05          0.0010     1.2320     2.0110 c3         1 IHE       0.131300
      6 N06         -0.4930     1.2320     0.6290 n3         1 IHE      -0.677600
      7 C15          3.4850     0.1200     1.3090 c3         1 IHE       0.125100
      8 C16         -1.9550     1.1110     0.7030 c3         1 IHE       0.113800
      9 C17         -2.5170     2.2410     1.5670 c3         1 IHE       0.042300
     10 N18         -3.9750     2.1210     1.6410 na         1 IHE      -0.243000
     11 C19         -4.8780     2.7630     0.8490 cc         1 IHE       0.422700
     12 N20         -6.0890     2.4260     1.1890 nd         1 IHE      -0.584100
     13 C21         -4.6830     1.3360     2.5170 ca         1 IHE       0.465800
     14 N22         -4.3600     0.5110     3.5040 nb         1 IHE      -0.765000
     15 C23         -5.3030    -0.1160     4.1940 ca         1 IHE       0.835000
     16 N24         -6.5970     0.0510     3.9410 nb         1 IHE      -0.810000
     17 C25         -7.0080     0.8610     2.9750 ca         1 IHE       0.792200
     18 C26         -6.0410     1.5480     2.2170 ca         1 IHE      -0.199200
     19 N28         -8.3570     1.0270     2.7180 nu         1 IHE      -0.880900
     20 C29         -9.3500     0.3050     3.5180 c3         1 IHE       0.238500
     21 C30        -10.6740     1.0700     3.5000 c3         1 IHE      -0.094400
     22 C31        -11.7110     0.3150     4.3350 c3         1 IHE      -0.076900
     23 C32        -11.9220    -1.0810     3.7460 c3         1 IHE      -0.083400
     24 C33        -10.5970    -1.8460     3.7630 c3         1 IHE      -0.076900
     25 C34         -9.5600    -1.0920     2.9280 c3         1 IHE      -0.094400
     26 N35         -4.5870    -1.6940     6.0880 n1         1 IHE      -0.331800
     27 C27         -4.9120    -1.0020     5.2490 cg         1 IHE       0.171800
     28 H011        -0.3590    -0.0510    -1.0210 h1         1 IHE       0.049700
     29 H012        -0.3590    -0.8570     0.5570 h1         1 IHE       0.049700
     30 H021         1.8890     2.0880     1.4530 h1         1 IHE       0.045700
     31 H022         1.8890     1.2820     3.0310 h1         1 IHE       0.045700
     32 H041         1.8890     0.8860    -0.5100 h1         1 IHE       0.045700
     33 H042         1.8890    -0.8860    -0.5090 h1         1 IHE       0.045700
     34 H051        -0.3580     0.3460     2.5210 h1         1 IHE       0.049700
     35 H052        -0.3570     2.1180     2.5210 h1         1 IHE       0.049700
     36 H151         3.8940     0.1780     2.3110 h1         1 IHE       0.036367
     37 H152         3.8940    -0.7460     0.8020 h1         1 IHE       0.036367
     38 H153         3.7470     1.0160     0.7600 h1         1 IHE       0.036367
     39 H161        -2.3740     1.1760    -0.2940 h1         1 IHE       0.053700
     40 H162        -2.2170     0.1560     1.1420 h1         1 IHE       0.053700
     41 H171        -2.0980     2.1760     2.5640 h1         1 IHE       0.077700
     42 H172        -2.2550     3.1960     1.1280 h1         1 IHE       0.077700
     43 H19         -4.6260     3.4540     0.0540 h5         1 IHE       0.082800
     44 H28         -8.6560     1.6490     1.9930 hn         1 IHE       0.464800
     45 H29         -9.0010     0.2140     4.5390 h1         1 IHE       0.083700
     46 H301       -10.5250     2.0570     3.9200 hc         1 IHE       0.048950
     47 H302       -11.0270     1.1560     2.4790 hc         1 IHE       0.048950
     48 H311       -11.3560     0.2260     5.3540 hc         1 IHE       0.045950
     49 H312       -12.6490     0.8570     4.3190 hc         1 IHE       0.045950
     50 H321       -12.6540    -1.6150     4.3390 hc         1 IHE       0.043200
     51 H322       -12.2720    -0.9920     2.7250 hc         1 IHE       0.043200
     52 H331       -10.2430    -1.9310     4.7840 hc         1 IHE       0.045950
     53 H332       -10.7460    -2.8340     3.3440 hc         1 IHE       0.045950
     54 H341        -8.6220    -1.6340     2.9440 hc         1 IHE       0.048950
     55 H342        -9.9150    -1.0030     1.9080 hc         1 IHE       0.048950
@<TRIPOS>BOND
     1     1     4 1
     2     1     6 1
     3     1    28 1
     4     1    29 1
     5     2     3 1
     6     2     5 1
     7     2    30 1
     8     2    31 1
     9     3     4 1
    10     3     7 1
    11     4    32 1
    12     4    33 1
    13     5     6 1
    14     5    34 1
    15     5    35 1
    16     6     8 1
    17     7    36 1
    18     7    37 1
    19     7    38 1
    20     8     9 1
    21     8    39 1
    22     8    40 1
    23     9    10 1
    24     9    41 1
    25     9    42 1
    26    10    11 1
    27    10    13 1
    28    11    12 2
    29    11    43 1
    30    12    18 1
    31    13    14 ar
    32    13    18 ar
    33    14    15 ar
    34    15    16 ar
    35    15    27 1
    36    16    17 ar
    37    17    18 ar
    38    17    19 1
    39    19    20 1
    40    19    44 1
    41    20    21 1
    42    20    25 1
    43    20    45 1
    44    21    22 1
    45    21    46 1
    46    21    47 1
    47    22    23 1
    48    22    48 1
    49    22    49 1
    50    23    24 1
    51    23    50 1
    52    23    51 1
    53    24    25 1
    54    24    52 1
    55    24    53 1
    56    25    54 1
    57    25    55 1
    58    26    27 3
@<TRIPOS>SUBSTRUCTURE
     1 IHE         1 TEMP              0 ****  ****    0 ROOT
