@<TRIPOS>MOLECULE
molecule
   19    18     1     0     0
SMALL
bcc


@<TRIPOS>ATOM
      1 C1           0.0000     0.0000     0.0000 c3         1 IHG      -0.110600
      2 C2           1.5300     0.0000     0.0000 c3         1 IHG       0.261500
      3 C3           2.0390     0.0000     1.4420 c3         1 IHG      -0.110600
      4 NE           2.0190    -1.1950    -0.6910 nu         1 IHG      -0.893200
      5 CZ           3.2200    -1.1600    -1.3580 c2         1 IHG       0.880100
      6 NH1          3.6790    -2.2810    -2.0060 nu         1 IHG      -0.757700
      7 NH2          3.9240    -0.0630    -1.3750 n2         1 IHG      -0.956100
      8 OH           4.9170    -2.2450    -2.6940 oh         1 IHG      -0.330300
      9 H11         -0.3610     0.9210     0.4420 hc         1 IHG       0.040367
     10 H12         -0.3610    -0.0780    -1.0180 hc         1 IHG       0.040367
     11 H13         -0.3610    -0.8430     0.5760 hc         1 IHG       0.040367
     12 H21          1.8910     0.8850    -0.5100 h1         1 IHG       0.091700
     13 H31          1.6220     0.8480     1.9720 hc         1 IHG       0.040367
     14 H32          1.7360    -0.9170     1.9330 hc         1 IHG       0.040367
     15 H33          3.1200     0.0690     1.4440 hc         1 IHG       0.040367
     16 HE1          1.4760    -2.0350    -0.6820 hn         1 IHG       0.428800
     17 HH11         3.1380    -3.1230    -1.9950 hn         1 IHG       0.428800
     18 HH21         4.7990    -0.0380    -1.8610 hn         1 IHG       0.416400
     19 HH1          5.0880    -3.0890    -3.0780 ho         1 IHG       0.408000
@<TRIPOS>BOND
     1     1     2 1
     2     1     9 1
     3     1    10 1
     4     1    11 1
     5     2     3 1
     6     2     4 1
     7     2    12 1
     8     3    13 1
     9     3    14 1
    10     3    15 1
    11     4     5 1
    12     4    16 1
    13     5     6 1
    14     5     7 2
    15     6     8 1
    16     6    17 1
    17     7    18 1
    18     8    19 1
@<TRIPOS>SUBSTRUCTURE
     1 IHG         1 TEMP              0 ****  ****    0 ROOT
