@<TRIPOS>MOLECULE
IHG
   19    18     1     0     0
SMALL
bcc


@<TRIPOS>ATOM
      1 C1           0.0000     0.0000     0.0000 c3         1 IHG      -0.013100
      2 C2           1.5300     0.0000     0.0000 c3         1 IHG       0.144500
      3 C3           2.0390     0.0000     1.4420 c3         1 IHG      -0.013100
      4 NE           2.0190    -1.1950    -0.6910 nu         1 IHG      -0.551200
      5 CZ           3.2200    -1.1600    -1.3580 c2         1 IHG       0.560100
      6 NH1          3.6790    -2.2810    -2.0060 nu         1 IHG      -0.273700
      7 NH2          3.9240    -0.0630    -1.3750 n2         1 IHG      -0.843100
      8 OH           4.9170    -2.2450    -2.6940 oh         1 IHG      -0.381300
      9 H11         -0.3610     0.9060     0.4710 hc         1 IHG       0.010533
     10 H12         -0.3610    -0.8610     0.5490 hc         1 IHG       0.010533
     11 H13         -0.3610    -0.0450    -1.0200 hc         1 IHG       0.010533
     12 H21          1.8910     0.8850    -0.5100 h1         1 IHG       0.044700
     13 H31          3.1180    -0.1010     1.4440 hc         1 IHG       0.010533
     14 H32          1.5980    -0.8300     1.9810 hc         1 IHG       0.010533
     15 H33          1.7630     0.9310     1.9230 hc         1 IHG       0.010533
     16 HE1          1.4770    -2.0360    -0.6820 hn         1 IHG       0.284800
     17 HH11         3.1380    -3.1230    -1.9950 hn         1 IHG       0.264800
     18 HH21         3.5900     0.7540    -0.9040 hn         1 IHG       0.332400
     19 HH1          5.0890    -3.0900    -3.0750 ho         1 IHG       0.383000
@<TRIPOS>BOND
     1     1     2 1   
     2     1     9 1   
     3     1    10 1   
     4     1    11 1   
     5     2     3 1   
     6     2     4 1   
     7     2    12 1   
     8     3    13 1   
     9     3    14 1   
    10     3    15 1   
    11     4     5 1   
    12     4    16 1   
    13     5     6 1   
    14     5     7 2   
    15     6     8 1   
    16     6    17 1   
    17     7    18 1   
    18     8    19 1   
@<TRIPOS>SUBSTRUCTURE
     1 IHG         1 TEMP              0 ****  ****    0 ROOT
