@<TRIPOS>MOLECULE
molecule
   48    52     1     0     0
SMALL
bcc


@<TRIPOS>ATOM
      1 C1           0.0000     0.0000     0.0000 ca         1 IHH      -0.164000
      2 C2           1.3910     0.0000     0.0000 ca         1 IHH      -0.084000
      3 C3           2.0940     0.0000     1.1690 ca         1 IHH      -0.202300
      4 C4          -0.7000    -0.0010     1.1710 ca         1 IHH      -0.055000
      5 C5          -0.0100    -0.0010     2.3870 ca         1 IHH      -0.286600
      6 C6           1.4060    -0.0010     2.3890 ca         1 IHH       0.488600
      7 C8           1.3740    -0.0030     4.6980 ca         1 IHH       0.904900
      8 C10         -0.6840    -0.0020     3.6350 ca         1 IHH       0.698200
      9 C12          3.4690     0.1150     5.8820 ca         1 IHH       0.088600
     10 C13          4.2290    -0.5370     6.8440 ca         1 IHH      -0.178000
     11 C14          5.6060    -0.4160     6.8330 ca         1 IHH      -0.068500
     12 C15          6.2260     0.3520     5.8640 ca         1 IHH      -0.132300
     13 C28         -3.5520    -1.7320     9.4710 cx         1 IHH      -0.147900
     14 C29         -3.3880    -0.3030     9.9940 cx         1 IHH      -0.147900
     15 C27         -2.5340    -0.7920     8.8220 cx         1 IHH      -0.003400
     16 C24         -3.0500    -0.0070     7.1380 cc         1 IHH      -0.046600
     17 C23         -2.0830    -0.0050     6.1920 cd         1 IHH      -0.375300
     18 N25         -4.2440    -0.0130     6.5100 na         1 IHH      -0.011600
     19 N26         -4.0070    -0.0090     5.1280 nc         1 IHH      -0.508800
     20 C22         -2.7090    -0.0050     4.9350 cd         1 IHH       0.515200
     21 N21         -2.0620    -0.0040     3.6940 nu         1 IHH      -0.898600
     22 N9           0.0440    -0.0030     4.7420 nb         1 IHH      -0.835000
     23 N7           2.0500    -0.0020     3.5660 nb         1 IHH      -0.836000
     24 N11          2.0750    -0.0030     5.8910 nu         1 IHH      -0.712300
     25 C17          4.0950     0.8900     4.9130 ca         1 IHH      -0.178000
     26 C16          5.4720     1.0020     4.9050 ca         1 IHH      -0.068500
     27 C18          7.7270     0.4800     5.8550 c3         1 IHH      -0.236000
     28 C19          8.3060    -0.5900     5.0280 c1         1 IHH       0.335700
     29 N20          8.7600    -1.4030     4.3770 n1         1 IHH      -0.388800
     30 H1          -0.5420     0.0000    -0.9380 ha         1 IHH       0.134000
     31 H2           1.9330     0.0010    -0.9380 ha         1 IHH       0.132000
     32 H3           3.1770     0.0000     1.1500 ha         1 IHH       0.147000
     33 H4          -1.7840    -0.0010     1.1540 ha         1 IHH       0.154000
     34 H13          3.7420    -1.1380     7.6030 ha         1 IHH       0.162500
     35 H14          6.2000    -0.9240     7.5830 ha         1 IHH       0.141500
     36 H28A        -4.4500    -1.9180     8.8950 hc         1 IHH       0.082950
     37 H29         -2.8720    -0.2080    10.9410 hc         1 IHH       0.082950
     38 H29A        -4.1860     0.3830     9.7370 hc         1 IHH       0.082950
     39 H27         -1.5440    -1.0370     9.1850 hc         1 IHH       0.120700
     40 H23         -1.0740    -0.3810     6.3120 ha         1 IHH       0.227000
     41 HN11         2.8490    -0.6260     6.0160 hn         1 IHH       0.498800
     42 H17          3.5040     1.4000     4.1620 ha         1 IHH       0.162500
     43 H16          5.9610     1.6030     4.1480 ha         1 IHH       0.141500
     44 H18          8.1370    -0.1350     5.0640 hc         1 IHH       0.146700
     45 H18A         8.0000     1.5150     5.6860 hc         1 IHH       0.146700
     46 H181        -5.0850    -0.4350     6.8500 hn         1 IHH       0.331700
     47 H19         -2.5140    -0.0270     4.5860 hn         1 IHH       0.561800
     48 H28         -3.1360    -2.5100    10.0990 hc         1 IHH       0.082950
@<TRIPOS>BOND
     1     1     2 ar
     2     1     4 ar
     3     1    30 1
     4     2     3 ar
     5     2    31 1
     6     3     6 ar
     7     3    32 1
     8     4     5 ar
     9     4    33 1
    10     5     6 ar
    11     5     8 ar
    12     6    23 ar
    13     7    22 ar
    14     7    23 ar
    15     7    24 1
    16     8    21 1
    17     8    22 ar
    18     9    10 ar
    19     9    24 1
    20     9    25 ar
    21    10    11 ar
    22    10    34 1
    23    11    12 ar
    24    11    35 1
    25    12    26 ar
    26    12    27 1
    27    13    14 1
    28    13    15 1
    29    13    48 1
    30    13    36 1
    31    14    15 1
    32    14    37 1
    33    14    38 1
    34    15    16 1
    35    15    39 1
    36    16    17 2
    37    16    18 1
    38    17    20 1
    39    17    40 1
    40    18    19 1
    41    19    20 2
    42    20    21 1
    43    24    41 1
    44    25    26 ar
    45    25    42 1
    46    26    43 1
    47    27    28 1
    48    27    44 1
    49    27    45 1
    50    28    29 3
    51    18    46 1
    52    21    47 1
@<TRIPOS>SUBSTRUCTURE
     1 IHH         1 TEMP              0 ****  ****    0 ROOT
