@<TRIPOS>MOLECULE
IHH
   48    52     1     0     0
SMALL
bcc


@<TRIPOS>ATOM
      1 C1         -0.3290   -0.2890   -0.0550 ca        1 IHH     -0.155000
      2 C2          1.0480   -0.0180   -0.2060 ca        1 IHH     -0.095000
      3 C3          1.8470    0.1940    0.8890 ca        1 IHH     -0.191300
      4 C4         -0.8910   -0.3430    1.2000 ca        1 IHH     -0.080000
      5 C5         -0.1040   -0.1220    2.3520 ca        1 IHH     -0.313600
      6 C6          1.2920    0.1470    2.2100 ca        1 IHH      0.469600
      7 C8          1.5520    0.3070    4.5170 ca        1 IHH      0.899900
      8 C10        -0.6100   -0.1640    3.7250 ca        1 IHH      0.718200
      9 C12         3.7290    0.4980    5.6780 ca        1 IHH      0.145600
     10 C13         4.3640   -0.2960    6.6610 ca        1 IHH     -0.139000
     11 C14         5.7510   -0.3380    6.7450 ca        1 IHH     -0.102500
     12 C15         6.5410    0.3970    5.8560 ca        1 IHH     -0.108300
     13 C28        -4.4050   -1.5470    9.4480 cx        1 IHH     -0.126900
     14 C29        -3.5800   -0.3640    9.8520 cx        1 IHH     -0.126900
     15 C27        -3.0880   -1.2820    8.7590 cx        1 IHH     -0.062400
     16 C24        -3.0410   -0.8400    7.3730 cc        1 IHH     -0.071600
     17 C23        -2.0950   -1.1550    6.3820 cd        1 IHH     -0.246300
     18 N25        -3.9780    0.0100    6.7650 na        1 IHH     -0.006600
     19 N26        -3.7020    0.2660    5.4930 nc        1 IHH     -0.545800
     20 C22        -2.5460   -0.4400    5.2000 cd        1 IHH      0.503200
     21 N21        -1.9600   -0.5090    3.9220 nh        1 IHH     -0.789600
     22 N9          0.1940    0.0430    4.7800 nb        1 IHH     -0.793000
     23 N7          2.1230    0.3570    3.2870 nb        1 IHH     -0.762000
     24 N11         2.3200    0.5990    5.6710 nh        1 IHH     -0.707300
     25 C17         4.5310    1.2460    4.7910 ca        1 IHH     -0.139000
     26 C16         5.9180    1.1830    4.8830 ca        1 IHH     -0.102500
     27 C18         8.0280    0.3590    5.9600 c3        1 IHH      0.030000
     28 C19         8.5970   -0.7800    5.2680 c1        1 IHH      0.213700
     29 N20         9.0630   -1.6900    4.7160 n1        1 IHH     -0.372800
     30 H1         -0.9450   -0.4620   -0.9490 ha        1 IHH      0.137000
     31 H2          1.4770    0.0190   -1.2200 ha        1 IHH      0.137000
     32 H3          2.9230    0.4000    0.7720 ha        1 IHH      0.154000
     33 H4         -1.9640   -0.5720    1.2860 ha        1 IHH      0.130000
     34 H13         3.7670   -0.8890    7.3710 ha        1 IHH      0.147500
     35 H14         6.2280   -0.9620    7.5160 ha        1 IHH      0.135500
     36 H28A       -5.3470   -1.3860    8.8950 hc        1 IHH      0.075700
     37 H29        -3.0550   -0.3780   10.8240 hc        1 IHH      0.075700
     38 H29A       -3.9250    0.6520    9.5900 hc        1 IHH      0.075700
     39 H27        -2.2360   -1.9560    8.9920 hc        1 IHH      0.101700
     40 H23        -1.2130   -1.7770    6.4700 ha        1 IHH      0.178000
     41 HN11        1.8880    0.3180    6.5300 hn        1 IHH      0.437800
     42 H17         4.0730    1.8840    4.0200 ha        1 IHH      0.147500
     43 H16         6.5290    1.7680    4.1770 ha        1 IHH      0.135500
     44 H18         8.3340    0.3100    7.0440 hc        1 IHH      0.078200
     45 H18A        8.4700    1.3000    5.5250 hc        1 IHH      0.078200
     46 H181       -4.7840    0.4050    7.1890 hn        1 IHH      0.322700
     47 H19        -2.5610   -0.2100    3.1790 hn        1 IHH      0.434800
     48 H28        -4.4750   -2.4140   10.1280 hc        1 IHH      0.075700
@<TRIPOS>BOND
     1    1    2 ar  
     2    1    4 ar  
     3    1   30 1   
     4    2    3 ar  
     5    2   31 1   
     6    3    6 ar  
     7    3   32 1   
     8    4    5 ar  
     9    4   33 1   
    10    5    6 ar  
    11    5    8 ar  
    12    6   23 ar  
    13    7   22 ar  
    14    7   23 ar  
    15    7   24 1   
    16    8   21 1   
    17    8   22 ar  
    18    9   10 ar  
    19    9   24 1   
    20    9   25 ar  
    21   10   11 ar  
    22   10   34 1   
    23   11   12 ar  
    24   11   35 1   
    25   12   26 ar  
    26   12   27 1   
    27   13   14 1   
    28   13   15 1   
    29   13   36 1   
    30   13   48 1   
    31   14   15 1   
    32   14   37 1   
    33   14   38 1   
    34   15   16 1   
    35   15   39 1   
    36   16   17 2   
    37   16   18 1   
    38   17   20 1   
    39   17   40 1   
    40   18   19 1   
    41   18   46 1   
    42   19   20 2   
    43   20   21 1   
    44   21   47 1   
    45   24   41 1   
    46   25   26 ar  
    47   25   42 1   
    48   26   43 1   
    49   27   28 1   
    50   27   44 1   
    51   27   45 1   
    52   28   29 3   
@<TRIPOS>SUBSTRUCTURE
     1 IHH         1 TEMP              0 ****  ****    0 ROOT
