@<TRIPOS>MOLECULE
IHI
   56    60     1     0     0
SMALL
bcc


@<TRIPOS>ATOM
      1 C01          0.0000     0.0000     0.0000 cc         1 IHI       0.252700
      2 N02          1.3160     0.0000     0.0000 nd         1 IHI      -0.488100
      3 C03          1.6680     0.0000     1.3260 ca         1 IHI      -0.221200
      4 C04          0.5420     0.0000     2.1320 ca         1 IHI       0.264800
      5 N05         -0.5150     0.0010     1.2690 na         1 IHI       0.227000
      6 C07          2.9030    -0.0000     1.9680 ca         1 IHI       0.595200
      7 N08          0.5040     0.0010     3.4740 nb         1 IHI      -0.635000
      8 N09          2.9400     0.0010     3.3230 nb         1 IHI      -0.709000
      9 C10          1.7560     0.0020     3.9810 ca         1 IHI       0.785000
     10 N11          4.0980     0.0000     1.2290 nu         1 IHI      -0.258300
     11 C12         -1.9330     0.0010     1.6200 c3         1 IHI      -0.067000
     12 C13         -2.3580    -1.2320     2.4370 c3         1 IHI      -0.029900
     13 C14         -3.4080    -0.7060     3.4040 c3         1 IHI      -0.024900
     14 C15         -2.8930     0.6780     3.7600 c3         1 IHI      -0.024900
     15 C16         -2.3890     1.2300     2.4310 c3         1 IHI      -0.029900
     16 N27          1.9350     0.0110     6.5660 n1         1 IHI      -0.361800
     17 C32          5.4580    -0.0010     1.6050 ca         1 IHI      -0.025400
     18 C33          5.8380    -0.6080     2.8030 ca         1 IHI      -0.082000
     19 C34          7.1780    -0.6160     3.1870 ca         1 IHI      -0.107000
     20 C35          8.1400    -0.0170     2.3750 ca         1 IHI      -0.077000
     21 C36          7.7620     0.5900     1.1770 ca         1 IHI      -0.172000
     22 C37          6.4210     0.5980     0.7930 ca         1 IHI       0.115100
     23 O38          6.0720     1.1970    -0.3810 os         1 IHI      -0.316900
     24 C39          6.8750     2.2930    -0.8120 c3         1 IHI       0.222400
     25 C26          1.8440     0.0020     5.4030 cg         1 IHI       0.123800
     26 C40          6.0100     3.2390    -1.6370 c3         1 IHI      -0.061400
     27 C41          6.7640     4.4700    -2.1360 c3         1 IHI      -0.040700
     28 N51          5.9600     5.3520    -2.9740 na         1 IHI       0.302100
     29 C52          5.8430     5.2730    -4.3250 cc         1 IHI       0.217400
     30 N53          5.0460     6.2100    -4.7910 nd         1 IHI      -0.608000
     31 C54          4.6440     6.9090    -3.6800 cd         1 IHI       0.306200
     32 C55          5.2030     6.3910    -2.5360 cc         1 IHI      -0.427600
     33 H01         -0.6050    -0.0000    -0.8990 h5         1 IHI       0.030800
     34 H11          3.9560     0.0020     0.2380 hn         1 IHI       0.291800
     35 H12         -2.5000    -0.0090     0.6970 h1         1 IHI       0.035700
     36 H131        -1.5120    -1.6330     2.9810 hc         1 IHI       0.028700
     37 H132        -2.7890    -1.9840     1.7860 hc         1 IHI       0.028700
     38 H141        -4.3740    -0.6390     2.9180 hc         1 IHI       0.025200
     39 H142        -3.4590    -1.3320     4.2870 hc         1 IHI       0.025200
     40 H151        -3.6960     1.2940     4.1460 hc         1 IHI       0.025200
     41 H152        -2.0810     0.6080     4.4730 hc         1 IHI       0.025200
     42 H161        -1.5530     1.8990     2.5970 hc         1 IHI       0.028700
     43 H162        -3.1900     1.7430     1.9120 hc         1 IHI       0.028700
     44 H33          5.0910    -1.0740     3.4340 ha         1 IHI       0.137000
     45 H34          7.4720    -1.0880     4.1170 ha         1 IHI       0.110000
     46 H35          9.1820    -0.0230     2.6730 ha         1 IHI       0.105000
     47 H36          8.5090     1.0560     0.5460 ha         1 IHI       0.117000
     48 H391         7.2670     2.8180     0.0500 h1         1 IHI       0.005200
     49 H392         7.6940     1.9280    -1.4190 h1         1 IHI       0.005200
     50 H401         5.1760     3.5670    -1.0270 hc         1 IHI       0.034200
     51 H402         5.6230     2.6980    -2.4920 hc         1 IHI       0.034200
     52 H411         7.1130     5.0330    -1.2790 h1         1 IHI       0.032200
     53 H412         7.6230     4.1400    -2.7070 h1         1 IHI       0.032200
     54 H52          6.3420     4.5340    -4.9400 h5         1 IHI       0.017100
     55 H54          3.9730     7.7590    -3.7030 h4         1 IHI      -0.002900
     56 H55          5.0700     6.7330    -1.5170 h4         1 IHI       0.159000
@<TRIPOS>BOND
     1     1     2 2   
     2     1     5 1   
     3     1    33 1   
     4     2     3 1   
     5     3     4 ar  
     6     3     6 ar  
     7     4     5 1   
     8     4     7 ar  
     9     5    11 1   
    10     6     8 ar  
    11     6    10 1   
    12     7     9 ar  
    13     8     9 ar  
    14     9    25 1   
    15    10    17 1   
    16    10    34 1   
    17    11    12 1   
    18    11    15 1   
    19    11    35 1   
    20    12    13 1   
    21    12    36 1   
    22    12    37 1   
    23    13    14 1   
    24    13    38 1   
    25    13    39 1   
    26    14    15 1   
    27    14    40 1   
    28    14    41 1   
    29    15    42 1   
    30    15    43 1   
    31    16    25 3   
    32    17    18 ar  
    33    17    22 ar  
    34    18    19 ar  
    35    18    44 1   
    36    19    20 ar  
    37    19    45 1   
    38    20    21 ar  
    39    20    46 1   
    40    21    22 ar  
    41    21    47 1   
    42    22    23 1   
    43    23    24 1   
    44    24    26 1   
    45    24    48 1   
    46    24    49 1   
    47    26    27 1   
    48    26    50 1   
    49    26    51 1   
    50    27    28 1   
    51    27    52 1   
    52    27    53 1   
    53    28    29 1   
    54    28    32 1   
    55    29    30 2   
    56    29    54 1   
    57    30    31 1   
    58    31    32 2   
    59    31    55 1   
    60    32    56 1   
@<TRIPOS>SUBSTRUCTURE
     1 IHI         1 TEMP              0 ****  ****    0 ROOT
