@<TRIPOS>MOLECULE
molecule
   66    70     1     0     0
SMALL
bcc


@<TRIPOS>ATOM
      1 N01          0.0000     0.0000     0.0000 na         1 IHJ      -0.234000
      2 C02          1.3620     0.0000     0.0000 cc         1 IHJ       0.412700
      3 N03          1.8080     0.0000     1.2240 nd         1 IHJ      -0.563100
      4 C05         -1.6590     0.0020     3.2450 ca         1 IHJ       0.808000
      5 N06         -1.5870     0.0010     1.9220 nb         1 IHJ      -0.725000
      6 C07         -0.4110     0.0000     1.3110 ca         1 IHJ       0.465800
      7 C08          0.7650     0.0060     2.0850 ca         1 IHJ      -0.151200
      8 C09          0.6410     0.0010     3.4870 ca         1 IHJ       0.737200
      9 N10         -0.5750     0.0010     4.0150 nb         1 IHJ      -0.782000
     10 N11          1.7640     0.0000     4.2970 nu         1 IHJ      -0.625300
     11 N13         -3.9720     0.0240     4.3610 n1         1 IHJ      -0.330800
     12 C16         -0.8670     0.0000    -1.1810 c3         1 IHJ       0.091000
     13 C17         -0.5970     1.2510    -2.0340 c3         1 IHJ      -0.433900
     14 C18         -0.1220     0.7510    -3.4130 c3         1 IHJ      -0.059900
     15 C19         -0.7000    -0.6820    -3.5160 c3         1 IHJ      -0.059900
     16 C20         -0.5470    -1.2180    -2.0710 c3         1 IHJ      -0.433900
     17 C30          1.6270     0.1320     5.6840 ca         1 IHJ      -0.003400
     18 C31          0.4550     0.6440     6.2210 ca         1 IHJ      -0.110000
     19 C32          0.3220     0.7740     7.5910 ca         1 IHJ      -0.165000
     20 C33          1.3530     0.3890     8.4280 ca         1 IHJ      -0.091000
     21 C34          2.5220    -0.1280     7.9000 ca         1 IHJ      -0.237000
     22 C35          2.6630    -0.2600     6.5290 ca         1 IHJ       0.147100
     23 O40          3.8120    -0.7670     6.0070 os         1 IHJ      -0.264900
     24 C41          4.6690    -1.0660     7.1110 c3         1 IHJ      -0.105600
     25 C42          5.9880    -1.6430     6.5920 c3         1 IHJ       0.007600
     26 C43          6.9060    -1.9620     7.7730 c3         1 IHJ      -0.013200
     27 N51          8.1710    -2.5170     7.2750 n3         1 IHJ      -0.585600
     28 C52          8.9460    -1.3880     6.7440 c3         1 IHJ      -0.192700
     29 C53         10.3320    -1.8730     6.3160 c3         1 IHJ       0.190800
     30 N54         11.0620    -2.3780     7.4850 n3         1 IHJ      -0.815600
     31 C55         10.2860    -3.5070     8.0160 c3         1 IHJ       0.190800
     32 C56          8.9000    -3.0220     8.4440 c3         1 IHJ      -0.192700
     33 C61         12.3270    -2.9340     6.9860 c3         1 IHJ       0.115100
     34 C12         -2.9490     0.0030     3.8670 cg         1 IHJ       0.170800
     35 H02          1.9990     0.0110    -0.8770 h5         1 IHJ       0.069800
     36 H11          2.3410     0.8160     4.3530 hn         1 IHJ       0.424800
     37 H16         -1.9090    -0.0250    -0.8820 h1         1 IHJ       0.139700
     38 H171        -0.1020     0.9740    -2.9570 hc         1 IHJ       0.158200
     39 H172         0.0050     1.9600    -1.4770 hc         1 IHJ       0.158200
     40 H181         0.9590     0.6740    -3.4290 hc         1 IHJ       0.089450
     41 H182        -0.4670     1.4200    -4.1910 hc         1 IHJ       0.089450
     42 H191        -0.2280    -1.2380    -4.3170 hc         1 IHJ       0.089450
     43 H192        -1.7780    -0.6630    -3.6190 hc         1 IHJ       0.089450
     44 H201        -0.6930    -0.9840    -3.1190 hc         1 IHJ       0.158200
     45 H202         0.4520    -1.5900    -1.8790 hc         1 IHJ       0.158200
     46 H31         -0.3550     0.9430     5.5670 ha         1 IHJ       0.181000
     47 H32         -0.5930     1.1740     8.0100 ha         1 IHJ       0.133000
     48 H33          1.2460     0.4920     9.5010 ha         1 IHJ       0.127000
     49 H34          3.3280    -0.4280     8.5580 ha         1 IHJ       0.155000
     50 H411         4.2030    -0.7350     8.0300 h1         1 IHJ       0.112200
     51 H412         4.8400    -2.1350     7.1560 h1         1 IHJ       0.112200
     52 H421         5.7980    -2.2370     5.7060 hc         1 IHJ       0.059700
     53 H422         6.6640    -0.8340     6.3460 hc         1 IHJ       0.059700
     54 H431         6.4110    -1.6940     8.6980 h1         1 IHJ       0.109700
     55 H432         7.8250    -1.3970     7.6780 h1         1 IHJ       0.109700
     56 H521         9.9500    -1.7270     6.5210 h1         1 IHJ       0.125700
     57 H522         8.9910    -0.6100     7.4960 h1         1 IHJ       0.125700
     58 H531        10.2250    -2.5290     5.4600 h1         1 IHJ       0.100450
     59 H532        10.9330    -1.0160     6.0370 h1         1 IHJ       0.100450
     60 H551        10.7330    -3.8310     8.9480 h1         1 IHJ       0.100450
     61 H552        10.3180    -4.3210     7.3020 h1         1 IHJ       0.100450
     62 H561         9.9060    -3.2860     8.1410 h1         1 IHJ       0.125700
     63 H562         8.9450    -2.2420     9.1930 h1         1 IHJ       0.125700
     64 H611        12.9220    -3.2820     7.8210 h1         1 IHJ       0.050700
     65 H612        12.8710    -2.1660     6.4500 h1         1 IHJ       0.050700
     66 H613        12.1200    -3.7620     6.3200 h1         1 IHJ       0.050700
@<TRIPOS>BOND
     1     1     2 1
     2     1     6 1
     3     1    12 1
     4     2     3 2
     5     2    35 1
     6     3     7 1
     7     4     5 ar
     8     4     9 ar
     9     4    34 1
    10     5     6 ar
    11     6     7 ar
    12     7     8 ar
    13     8     9 ar
    14     8    10 1
    15    10    17 1
    16    10    36 1
    17    11    34 3
    18    12    13 1
    19    12    16 1
    20    12    37 1
    21    13    14 1
    22    13    38 1
    23    13    39 1
    24    14    15 1
    25    14    40 1
    26    14    41 1
    27    15    16 1
    28    15    42 1
    29    15    43 1
    30    16    44 1
    31    16    45 1
    32    17    18 ar
    33    17    22 ar
    34    18    19 ar
    35    18    46 1
    36    19    20 ar
    37    19    47 1
    38    20    21 ar
    39    20    48 1
    40    21    22 ar
    41    21    49 1
    42    22    23 1
    43    23    24 1
    44    24    25 1
    45    24    50 1
    46    24    51 1
    47    25    26 1
    48    25    52 1
    49    25    53 1
    50    26    27 1
    51    26    54 1
    52    26    55 1
    53    27    28 1
    54    27    32 1
    55    28    29 1
    56    28    56 1
    57    28    57 1
    58    29    30 1
    59    29    58 1
    60    29    59 1
    61    30    31 1
    62    30    33 1
    63    31    32 1
    64    31    60 1
    65    31    61 1
    66    32    62 1
    67    32    63 1
    68    33    64 1
    69    33    65 1
    70    33    66 1
@<TRIPOS>SUBSTRUCTURE
     1 IHJ         1 TEMP              0 ****  ****    0 ROOT
