@<TRIPOS>MOLECULE
IHM
   67    71     1     0     0
SMALL
bcc


@<TRIPOS>ATOM
      1 C01          0.0000     0.0000     0.0000 ca         1 IHM       0.112100
      2 C02          1.3860     0.0000     0.0000 ca         1 IHM      -0.159000
      3 C03          2.0770     0.0000     1.1970 ca         1 IHM      -0.113000
      4 C04          1.3900     0.0010     2.3960 ca         1 IHM      -0.109300
      5 C05          0.0080     0.0010     2.4040 ca         1 IHM      -0.159000
      6 C06         -0.6910     0.0060     1.2080 ca         1 IHM       0.145100
      7 O07         -0.6820    -0.0010    -1.1760 os         1 IHM      -0.296900
      8 C08          0.0940    -0.0010    -2.3760 c3         1 IHM       0.586700
      9 F09          0.9010     1.1420    -2.4100 f          1 IHM      -0.226800
     10 F10          0.9010    -1.1440    -2.4090 f          1 IHM      -0.226800
     11 O11         -2.0520     0.0060     1.2140 os         1 IHM      -0.287900
     12 C12         -2.6950     0.0000     2.4900 c3         1 IHM       0.240400
     13 C13         -4.2120     0.0020     2.2960 cx         1 IHM      -0.125700
     14 C14         -5.0850    -0.1220     3.5470 cx         1 IHM      -0.071400
     15 C15         -4.9900     1.2160     2.8100 cx         1 IHM      -0.071400
     16 C16          2.1490    -0.0060     3.6980 c3         1 IHM       0.034300
     17 O17          0.4470     6.0930     3.5800 o          1 IHM      -0.820700
     18 C18          3.4070    -2.0060     2.8530 cc         1 IHM      -0.261300
     19 C19          3.9560    -3.1130     3.3970 cd         1 IHM      -0.315300
     20 C20          3.7260    -3.0710     4.7860 cd         1 IHM       0.428800
     21 N21          3.0590    -1.9690     5.0530 nc         1 IHM      -0.636800
     22 N22          2.8480    -1.2850     3.8490 na         1 IHM       0.486400
     23 C23          4.1600    -4.0910     5.7740 ca         1 IHM      -0.098500
     24 C24          3.8650    -3.9240     7.1240 ca         1 IHM      -0.080000
     25 C25          4.2720    -4.8810     8.0410 ca         1 IHM      -0.096400
     26 C26          4.9720    -6.0010     7.6120 ca         1 IHM      -0.130000
     27 C27          5.2660    -6.1650     6.2710 ca         1 IHM      -0.089000
     28 C28          4.8590    -5.2200     5.3510 ca         1 IHM      -0.104000
     29 N29          3.9790    -4.7170     9.3990 ns         1 IHM      -0.041100
     30 C30          2.8160    -4.1450     9.7740 c          1 IHM       0.557100
     31 O31          2.0650    -3.6950     8.9360 o          1 IHM      -0.627100
     32 C32          3.1670     1.1360     3.7000 c3         1 IHM       0.018900
     33 C33          2.4510    -4.0660    11.2340 c3         1 IHM      -0.069100
     34 C34          2.4430     2.4560     3.6680 ca         1 IHM      -0.135300
     35 C35          2.0800     3.0950     4.8440 ca         1 IHM      -0.037000
     36 C36          1.4170     4.3050     4.7770 ca         1 IHM      -0.364300
     37 N37          1.1280     4.8520     3.6100 na         1 IHM       1.085300
     38 C38          1.4570     4.2720     2.4710 ca         1 IHM      -0.364300
     39 C39          2.1280     3.0640     2.4620 ca         1 IHM      -0.037000
     40 H1           1.9270    -0.0030    -0.9380 ha         1 IHM       0.138000
     41 H2           3.1610    -0.0000     1.1950 ha         1 IHM       0.121000
     42 H3          -0.5290     0.0030     3.3450 ha         1 IHM       0.133000
     43 H4          -0.5680    -0.0020    -3.2340 h3         1 IHM       0.063700
     44 H5          -2.4020    -0.8870     3.0380 h1         1 IHM       0.005200
     45 H6          -2.4010     0.8820     3.0460 h1         1 IHM       0.005200
     46 H7          -4.6270    -0.4590     1.4070 hc         1 IHM       0.071700
     47 H8          -4.5490    -0.1770     4.4870 hc         1 IHM       0.047200
     48 H9          -6.0150    -0.6620     3.4170 hc         1 IHM       0.047200
     49 H10         -5.8610     1.4920     2.2290 hc         1 IHM       0.047200
     50 H11         -4.3960     1.9780     3.2990 hc         1 IHM       0.047200
     51 H12          1.4560     0.1260     4.5200 h1         1 IHM       0.061700
     52 H14          3.4130    -1.7420     1.8020 h4         1 IHM       0.159000
     53 H15          4.4810    -3.8940     2.8600 ha         1 IHM       0.137000
     54 H16          3.3190    -3.0500     7.4570 ha         1 IHM       0.162000
     55 H17          5.2920    -6.7460     8.3300 ha         1 IHM       0.103000
     56 H18          5.8110    -7.0420     5.9410 ha         1 IHM       0.102000
     57 H19          5.0900    -5.3520     4.3010 ha         1 IHM       0.109000
     58 H20          4.6420    -5.0010    10.0920 hn         1 IHM       0.166500
     59 H21          3.7720     1.0780     4.5970 hc         1 IHM       0.037700
     60 H22          3.8050     1.0530     2.8280 hc         1 IHM       0.037700
     61 H23          2.1930    -5.0540    11.5960 hc         1 IHM       0.023367
     62 H24          3.2950    -3.6840    11.7970 hc         1 IHM       0.023367
     63 H25          1.6040    -3.4020    11.3590 hc         1 IHM       0.023367
     64 H26          2.3140     2.6510     5.8040 ha         1 IHM       0.128000
     65 H27          1.1300     4.8110     5.6910 h4         1 IHM       0.166500
     66 H28          1.2080     4.7530     1.5330 h4         1 IHM       0.166500
     67 H29          2.3950     2.5930     1.5240 ha         1 IHM       0.128000
@<TRIPOS>BOND
     1     1     2 ar  
     2     1     6 ar  
     3     1     7 1   
     4     2     3 ar  
     5     2    40 1   
     6     3     4 ar  
     7     3    41 1   
     8     4     5 ar  
     9     4    16 1   
    10     5     6 ar  
    11     5    42 1   
    12     6    11 1   
    13     7     8 1   
    14     8     9 1   
    15     8    10 1   
    16     8    43 1   
    17    11    12 1   
    18    12    13 1   
    19    12    44 1   
    20    12    45 1   
    21    13    14 1   
    22    13    15 1   
    23    13    46 1   
    24    14    15 1   
    25    14    47 1   
    26    14    48 1   
    27    15    49 1   
    28    15    50 1   
    29    16    22 1   
    30    16    32 1   
    31    16    51 1   
    32    17    37 2   
    33    18    19 2   
    34    18    22 1   
    35    18    52 1   
    36    19    20 1   
    37    19    53 1   
    38    20    21 2   
    39    20    23 1   
    40    21    22 1   
    41    23    24 ar  
    42    23    28 ar  
    43    24    25 ar  
    44    24    54 1   
    45    25    26 ar  
    46    25    29 1   
    47    26    27 ar  
    48    26    55 1   
    49    27    28 ar  
    50    27    56 1   
    51    28    57 1   
    52    29    30 1   
    53    29    58 1   
    54    30    31 2   
    55    30    33 1   
    56    32    34 1   
    57    32    59 1   
    58    32    60 1   
    59    33    61 1   
    60    33    62 1   
    61    33    63 1   
    62    34    35 ar  
    63    34    39 ar  
    64    35    36 ar  
    65    35    64 1   
    66    36    37 1   
    67    36    65 1   
    68    37    38 2   
    69    38    39 ar  
    70    38    66 1   
    71    39    67 1   
@<TRIPOS>SUBSTRUCTURE
     1 IHM         1 TEMP              0 ****  ****    0 ROOT
