@<TRIPOS>MOLECULE
IHU
   35    36     1     0     0
SMALL
bcc


@<TRIPOS>ATOM
      1 C51          0.0000     0.0000     0.0000 c3         1 IHU       0.223700
      2 O54          1.4290     0.0000     0.0000 os         1 IHU      -0.300900
      3 C19          1.8230     0.0000     1.3020 ca         1 IHU       0.077100
      4 C20          0.8740     0.0000     2.3130 ca         1 IHU      -0.180000
      5 C21          1.2730     0.0000     3.6370 ca         1 IHU      -0.119000
      6 C22          2.6220    -0.0010     3.9570 ca         1 IHU       0.115100
      7 O55          3.0120    -0.0010     5.2600 oh         1 IHU      -0.492100
      8 C23          3.5760    -0.0020     2.9500 ca         1 IHU      -0.135000
      9 C18          3.1780    -0.0070     1.6210 ca         1 IHU      -0.090400
     10 N17          4.1390    -0.0080     0.6010 ns         1 IHU      -0.030100
     11 C15          5.4030    -0.3930     0.8660 c          1 IHU       0.545100
     12 O16          5.6840    -0.8480     1.9580 o          1 IHU      -0.609100
     13 N14          6.3560    -0.2740    -0.0790 ns         1 IHU      -0.180500
     14 C12          7.6200    -0.6590     0.1860 c          1 IHU       0.587700
     15 O13          7.9010    -1.1130     1.2770 o          1 IHU      -0.540100
     16 C3           8.6640    -0.5280    -0.8490 ca         1 IHU      -0.179600
     17 C4           8.3440    -0.0060    -2.1050 ca         1 IHU      -0.048000
     18 C5           9.3220     0.1130    -3.0680 ca         1 IHU      -0.145000
     19 C6          10.6230    -0.2840    -2.7930 ca         1 IHU       0.142900
     20 F10         11.5780    -0.1650    -3.7410 f          1 IHU      -0.121900
     21 C1          10.9470    -0.8030    -1.5500 ca         1 IHU      -0.146000
     22 C2           9.9770    -0.9210    -0.5750 ca         1 IHU       0.029400
     23 Cl11        10.3840    -1.5700     0.9830 cl         1 IHU       0.064600
     24 H511        -0.3610     0.8850     0.5100 h1         1 IHU       0.003033
     25 H512        -0.3610    -0.0000    -1.0210 h1         1 IHU       0.003033
     26 H513        -0.3610    -0.8840     0.5110 h1         1 IHU       0.003033
     27 H20         -0.1800     0.0010     2.0650 ha         1 IHU       0.132000
     28 H21          0.5310     0.0000     4.4250 ha         1 IHU       0.112000
     29 H55          3.0420     0.8860     5.5790 ho         1 IHU       0.398000
     30 H23          4.6290    -0.0050     3.2000 ha         1 IHU       0.182000
     31 H17          3.8940     0.3100    -0.3160 hn         1 IHU       0.166500
     32 H14          6.1220     0.0890    -0.9820 hn         1 IHU       0.169500
     33 H4           7.3290     0.3040    -2.3210 ha         1 IHU       0.103000
     34 H5           9.0750     0.5170    -4.0420 ha         1 IHU       0.124000
     35 H1          11.9650    -1.1090    -1.3400 ha         1 IHU       0.135000
@<TRIPOS>BOND
     1     1     2 1   
     2     1    24 1   
     3     1    25 1   
     4     1    26 1   
     5     2     3 1   
     6     3     4 ar  
     7     3     9 ar  
     8     4     5 ar  
     9     4    27 1   
    10     5     6 ar  
    11     5    28 1   
    12     6     7 1   
    13     6     8 ar  
    14     7    29 1   
    15     8     9 ar  
    16     8    30 1   
    17     9    10 1   
    18    10    11 1   
    19    10    31 1   
    20    11    12 2   
    21    11    13 1   
    22    13    14 1   
    23    13    32 1   
    24    14    15 2   
    25    14    16 1   
    26    16    17 ar  
    27    16    22 ar  
    28    17    18 ar  
    29    17    33 1   
    30    18    19 ar  
    31    18    34 1   
    32    19    20 1   
    33    19    21 ar  
    34    21    22 ar  
    35    21    35 1   
    36    22    23 1   
@<TRIPOS>SUBSTRUCTURE
     1 IHU         1 TEMP              0 ****  ****    0 ROOT
