@<TRIPOS>MOLECULE
IHX
   47    50     1     0     0
SMALL
bcc


@<TRIPOS>ATOM
      1 C1           0.0000     0.0000     0.0000 ca         1 IHX      -0.084000
      2 C2           1.3800     0.0000     0.0000 ca         1 IHX      -0.085000
      3 C3          -0.6950    -0.0000     1.1950 ca         1 IHX      -0.141000
      4 C4           2.0770     0.0000     1.2080 cp         1 IHX      -0.015000
      5 C5          -0.0100    -0.0010     2.4020 ca         1 IHX       0.124100
      6 C6           1.3740    -0.0010     2.4130 ca         1 IHX      -0.121000
      7 C7           3.5580    -0.0000     1.2120 cp         1 IHX      -0.074300
      8 C8           4.2740    -0.9360     0.4290 ca         1 IHX       0.323300
      9 C11          4.2560     0.9180     1.9780 ca         1 IHX      -0.040000
     10 C12          5.6450     0.9250     1.9860 ca         1 IHX      -0.212300
     11 C18          4.3270    -2.6950    -1.0460 ca         1 IHX       0.391900
     12 C19          5.7330    -2.6750    -1.0240 ca         1 IHX       0.236900
     13 N22          3.6640    -3.6290    -1.8300 nh         1 IHX      -0.444300
     14 C24          1.9770    -4.0350    -3.5560 c3         1 IHX       0.153300
     15 C27          4.6180    -4.4880    -2.5460 c3         1 IHX       0.132800
     16 F17          6.6010     1.4060     4.1040 f          1 IHX      -0.206633
     17 C14          6.3760     1.9370     2.8290 c3         1 IHX       0.640200
     18 F15          7.6030     2.2440     2.2300 f          1 IHX      -0.206633
     19 F16          5.6060     3.0990     2.9370 f          1 IHX      -0.206633
     20 O13         -0.6990    -0.0000     3.5740 oh         1 IHX      -0.498100
     21 C10          6.3570     0.0310     1.2440 ca         1 IHX      -0.053300
     22 C9           5.6900    -0.9160     0.4480 ca         1 IHX       0.216300
     23 N21          6.3760    -1.7990    -0.2890 nb         1 IHX      -0.496000
     24 N20          3.6340    -1.8340    -0.3260 nb         1 IHX      -0.571000
     25 C25          3.8500    -5.5510    -3.3340 c3         1 IHX       0.153300
     26 N23          2.9310    -4.8930    -4.2730 n3         1 IHX      -0.551600
     27 C28          2.2290    -5.8820    -5.1020 c3         1 IHX       0.190100
     28 C26          2.7450    -2.9720    -2.7680 c3         1 IHX       0.132800
     29 H1          -0.5400     0.0000    -0.9390 ha         1 IHX       0.103000
     30 H2           1.9220     0.0000    -0.9380 ha         1 IHX       0.112000
     31 H3          -1.7780    -0.0000     1.1890 ha         1 IHX       0.112000
     32 H6           1.9100    -0.0010     3.3550 ha         1 IHX       0.119000
     33 H11          3.7130     1.6430     2.5730 ha         1 IHX       0.126000
     34 H19          6.2890    -3.3870    -1.6220 h4         1 IHX       0.010100
     35 H24          1.3220    -3.5510    -4.2700 h1         1 IHX       0.018700
     36 H24A         1.3930    -4.6390    -2.8720 h1         1 IHX       0.018700
     37 H27          5.2730    -4.9720    -1.8320 h1         1 IHX       0.029200
     38 H27A         5.2020    -3.8850    -3.2300 h1         1 IHX       0.029200
     39 HO13        -1.0290     0.8670     3.7440 ho         1 IHX       0.402000
     40 H10          7.4400     0.0530     1.2640 ha         1 IHX       0.131000
     41 H25          3.2830    -6.1690    -2.6480 h1         1 IHX       0.018700
     42 H25A         4.5510    -6.1650    -3.8870 h1         1 IHX       0.018700
     43 H28          1.6330    -6.5270    -4.4670 h1         1 IHX       0.002033
     44 H28A         1.5820    -5.3700    -5.8050 h1         1 IHX       0.002033
     45 H28B         2.9530    -6.4780    -5.6440 h1         1 IHX       0.002033
     46 H26          3.3120    -2.3540    -3.4540 h1         1 IHX       0.029200
     47 H26A         2.0440    -2.3580    -2.2150 h1         1 IHX       0.029200
@<TRIPOS>BOND
     1     1     2 ar  
     2     1     3 ar  
     3     1    29 1   
     4     2     4 ar  
     5     2    30 1   
     6     3     5 ar  
     7     3    31 1   
     8     4     6 ar  
     9     4     7 1   
    10     5     6 ar  
    11     5    20 1   
    12     6    32 1   
    13     7     8 ar  
    14     7     9 ar  
    15     8    22 ar  
    16     8    24 ar  
    17     9    10 ar  
    18     9    33 1   
    19    10    17 1   
    20    10    21 ar  
    21    11    12 ar  
    22    11    13 1   
    23    11    24 ar  
    24    12    23 ar  
    25    12    34 1   
    26    13    15 1   
    27    13    28 1   
    28    14    26 1   
    29    14    28 1   
    30    14    35 1   
    31    14    36 1   
    32    15    25 1   
    33    15    37 1   
    34    15    38 1   
    35    16    17 1   
    36    17    18 1   
    37    17    19 1   
    38    20    39 1   
    39    21    22 ar  
    40    21    40 1   
    41    22    23 ar  
    42    25    26 1   
    43    25    41 1   
    44    25    42 1   
    45    26    27 1   
    46    27    43 1   
    47    27    44 1   
    48    27    45 1   
    49    28    46 1   
    50    28    47 1   
@<TRIPOS>SUBSTRUCTURE
     1 IHX         1 TEMP              0 ****  ****    0 ROOT
