@<TRIPOS>MOLECULE
IHZ
   48    50     1     0     0
SMALL
bcc


@<TRIPOS>ATOM
      1 FAE          0.0000     0.0000     0.0000 f          1 IHZ      -0.204967
      2 CBD          1.3990     0.0000     0.0000 c3         1 IHZ       0.641200
      3 FAF          1.8660     0.0000     1.3180 f          1 IHZ      -0.204967
      4 FAG          1.8650    -1.1420    -0.6590 f          1 IHZ      -0.204967
      5 CBB          1.9010     1.2300    -0.7110 ca         1 IHZ      -0.190300
      6 CAP          2.1320     2.3910    -0.0020 ca         1 IHZ      -0.064000
      7 CAK          2.1360     1.1920    -2.0740 ca         1 IHZ      -0.043000
      8 CAH          2.5970     2.3190    -2.7300 ca         1 IHZ      -0.092000
      9 CAI          2.8250     3.4860    -2.0270 ca         1 IHZ      -0.059000
     10 CAX          2.5950     3.5250    -0.6580 ca         1 IHZ      -0.106400
     11 NAS          2.8280     4.7030     0.0590 ns         1 IHZ      -0.024100
     12 CAV          2.4790     5.8930    -0.4690 c          1 IHZ       0.590700
     13 OAD          1.8760     5.9370    -1.5240 o          1 IHZ      -0.663100
     14 CAZ          2.8270     7.1450     0.2370 ca         1 IHZ      -0.122600
     15 CAQ          2.4660     8.3770    -0.3070 ca         1 IHZ      -0.126000
     16 CAL          3.5140     7.0970     1.4510 ca         1 IHZ      -0.098000
     17 CAJ          3.8370     8.2660     2.1070 ca         1 IHZ      -0.054000
     18 CAW          3.4850     9.4890     1.5670 ca         1 IHZ      -0.101300
     19 CAA          3.8430    10.7620     2.2900 c3         1 IHZ       0.058200
     20 CBC          2.7960     9.5470     0.3610 ca         1 IHZ      -0.008400
     21 NAT          2.4370    10.7850    -0.1800 nu         1 IHZ      -0.195000
     22 CAY          1.6230    10.8430    -1.3150 ca         1 IHZ      -0.085700
     23 CAO          0.5940     9.9250    -1.4900 ca         1 IHZ      -0.028000
     24 CAM          1.8290    11.8230    -2.2800 ca         1 IHZ       0.422200
     25 NAR          1.0670    11.8860    -3.3540 nb         1 IHZ      -0.511000
     26 CAN          0.0850    11.0360    -3.5650 ca         1 IHZ       0.384200
     27 CBA         -0.1930    10.0250    -2.6430 ca         1 IHZ      -0.321900
     28 CAU         -1.3000     9.0750    -2.8800 c          1 IHZ       0.360700
     29 OAC         -1.5350     8.1990    -2.0710 o          1 IHZ      -0.413100
     30 NAB         -2.0520     9.1820    -3.9950 nz         1 IHZ       0.199600
     31 HAP          1.9150     2.4300     1.0590 ha         1 IHZ       0.122000
     32 HAK          1.9540     0.2800    -2.6290 ha         1 IHZ       0.123000
     33 HAH          2.7820     2.2850    -3.7970 ha         1 IHZ       0.114000
     34 HAI          3.2520     4.3460    -2.5290 ha         1 IHZ       0.125000
     35 HNAS         3.2560     4.6620     0.9630 hn         1 IHZ       0.180500
     36 HAQ          1.9300     8.4210    -1.2470 ha         1 IHZ       0.139000
     37 HAL          3.7920     6.1410     1.8790 ha         1 IHZ       0.112000
     38 HAJ          4.3700     8.2260     3.0500 ha         1 IHZ       0.121000
     39 HAA          2.9370    11.2890     2.5630 hc         1 IHZ       0.016367
     40 HAAA         4.4050    10.5230     3.1850 hc         1 IHZ       0.016367
     41 HAAB         4.4440    11.3880     1.6420 hc         1 IHZ       0.016367
     42 HNAT         2.7630    11.6310     0.2450 hn         1 IHZ       0.307800
     43 HAO          0.4060     9.1530    -0.7540 ha         1 IHZ       0.169000
     44 HAM          2.6270    12.5440    -2.1480 h4         1 IHZ       0.005100
     45 HAN         -0.5180    11.1240    -4.4610 h4         1 IHZ      -0.044900
     46 HNAB        -2.7510     8.4650    -3.9960 hn         1 IHZ       0.247467
     47 HNAA        -1.4690     9.0800    -4.8020 hn         1 IHZ       0.247467
     48 HAB3        -2.4950    10.0790    -4.0140 hn         1 IHZ       0.247467
@<TRIPOS>BOND
     1     1     2 1   
     2     2     3 1   
     3     2     4 1   
     4     2     5 1   
     5     5     6 ar  
     6     5     7 ar  
     7     6    10 ar  
     8     6    31 1   
     9     7     8 ar  
    10     7    32 1   
    11     8     9 ar  
    12     8    33 1   
    13     9    10 ar  
    14     9    34 1   
    15    10    11 1   
    16    11    12 1   
    17    11    35 1   
    18    12    13 2   
    19    12    14 1   
    20    14    15 ar  
    21    14    16 ar  
    22    15    20 ar  
    23    15    36 1   
    24    16    17 ar  
    25    16    37 1   
    26    17    18 ar  
    27    17    38 1   
    28    18    19 1   
    29    18    20 ar  
    30    19    39 1   
    31    19    40 1   
    32    19    41 1   
    33    20    21 1   
    34    21    22 1   
    35    21    42 1   
    36    22    23 ar  
    37    22    24 ar  
    38    23    27 ar  
    39    23    43 1   
    40    24    25 ar  
    41    24    44 1   
    42    25    26 ar  
    43    26    27 ar  
    44    26    45 1   
    45    27    28 1   
    46    28    29 2   
    47    28    30 1   
    48    30    46 1   
    49    30    47 1   
    50    30    48 1   
@<TRIPOS>SUBSTRUCTURE
     1 IHZ         1 TEMP              0 ****  ****    0 ROOT
