@<TRIPOS>MOLECULE
molecule
   41    44     1     0     0
SMALL
bcc


@<TRIPOS>ATOM
      1 O1           0.0000     0.0000     0.0000 o          1 II2      -0.572500
      2 C7           1.2140     0.0000     0.0000 c          1 II2       0.726100
      3 C6           2.0780     0.0000     1.1990 ca         1 II2      -0.138600
      4 C5           1.8380    -0.0010     2.5620 ca         1 II2      -0.094000
      5 C4           2.9130    -0.0010     3.4510 ca         1 II2       0.192600
      6 N1           2.6770    -0.0020     4.8220 nv         1 II2      -0.972200
      7 C3           4.2190    -0.0010     2.9740 ca         1 II2      -0.148000
      8 C2           4.4660     0.0010     1.6140 ca         1 II2      -0.043000
      9 C1           3.4050     0.0010     0.7190 ca         1 II2      -0.176600
     10 N2           2.0000    -0.0050    -1.0920 n          1 II2      -0.376600
     11 C20          3.3020     0.0010    -0.7520 c          1 II2       0.729100
     12 O2           4.2360     0.0030    -1.5280 o          1 II2      -0.576500
     13 C8           1.5240    -0.0130    -2.4130 ca         1 II2       0.028600
     14 C9           2.4200    -0.0180    -3.4730 ca         1 II2      -0.138000
     15 C10          1.9530    -0.0260    -4.7720 ca         1 II2      -0.115000
     16 C11          0.5850    -0.0280    -5.0190 ca         1 II2       0.014900
     17 C18         -0.3110    -0.0230    -3.9560 ca         1 II2      -0.115000
     18 C19          0.1580    -0.0220    -2.6580 ca         1 II2      -0.138000
     19 S           -0.0110    -0.0370    -6.6760 ss         1 II2      -0.203800
     20 C12          1.4620     0.1270    -7.6290 ca         1 II2      -0.080100
     21 C13          2.0990    -1.0030    -8.1230 ca         1 II2      -0.030000
     22 C14          3.2530    -0.8740    -8.8700 ca         1 II2      -0.225500
     23 C15          3.7770     0.3870    -9.1270 ca         1 II2       0.230600
     24 N3           4.9470     0.5170    -9.8830 nv         1 II2      -0.915200
     25 C16          3.1390     1.5170    -8.6320 ca         1 II2      -0.225500
     26 C17          1.9830     1.3880    -7.8900 ca         1 II2      -0.030000
     27 H5           0.8270     0.1150     2.9340 ha         1 II2       0.156000
     28 H11N         2.2250    -0.7850     5.2510 hn         1 II2       0.436300
     29 H12N         2.9290     0.7950     5.3730 hn         1 II2       0.436300
     30 H3           5.0470    -0.0010     3.6720 ha         1 II2       0.147000
     31 H2           5.4850     0.0010     1.2470 ha         1 II2       0.151000
     32 H9           3.4860    -0.0160    -3.2810 ha         1 II2       0.177000
     33 H19         -0.5410    -0.0170    -1.8310 ha         1 II2       0.177000
     34 H10          2.6530    -0.0300    -5.5990 ha         1 II2       0.145500
     35 H18         -1.3770    -0.0270    -4.1480 ha         1 II2       0.145500
     36 H13          1.6910    -1.9870    -7.9230 ha         1 II2       0.144000
     37 H17          1.4850     2.2700    -7.5050 ha         1 II2       0.144000
     38 H14          3.7500    -1.7560    -9.2550 ha         1 II2       0.133000
     39 H31N         5.3460     1.4220   -10.0360 hn         1 II2       0.432300
     40 H32N         5.3840    -0.2940   -10.2740 hn         1 II2       0.432300
     41 H16          3.5470     2.5010    -8.8340 ha         1 II2       0.133000
@<TRIPOS>BOND
     1     1     2 2
     2     2     3 1
     3     2    10 1
     4     3     4 ar
     5     3     9 ar
     6     4     5 ar
     7     5     6 1
     8     5     7 ar
     9     7     8 ar
    10     8     9 ar
    11     9    11 1
    12    10    11 1
    13    10    13 1
    14    11    12 2
    15    13    14 ar
    16    13    18 ar
    17    14    15 ar
    18    15    16 ar
    19    16    17 ar
    20    16    19 1
    21    17    18 ar
    22    19    20 1
    23    20    21 ar
    24    20    26 ar
    25    21    22 ar
    26    22    23 ar
    27    23    24 1
    28    23    25 ar
    29    25    26 ar
    30     4    27 1
    31     6    28 1
    32     6    29 1
    33     7    30 1
    34     8    31 1
    35    14    32 1
    36    18    33 1
    37    15    34 1
    38    17    35 1
    39    21    36 1
    40    26    37 1
    41    22    38 1
    42    24    39 1
    43    24    40 1
    44    25    41 1
@<TRIPOS>SUBSTRUCTURE
     1 II2         1 TEMP              0 ****  ****    0 ROOT
