@<TRIPOS>MOLECULE
molecule
   30    32     1     0     0
SMALL
bcc


@<TRIPOS>ATOM
      1 C2           0.0000     0.0000     0.0000 ca         1 II4       0.182600
      2 C3           1.3830     0.0000     0.0000 ca         1 II4      -0.153000
      3 C4           2.0750     0.0000     1.2140 ca         1 II4       0.130400
      4 C5           1.3570    -0.0010     2.4210 ca         1 II4      -0.126200
      5 C6          -0.0310    -0.0020     2.4050 ca         1 II4      -0.089000
      6 N7           2.3060    -0.0010     3.4290 na         1 II4      -0.083400
      7 C8           3.5290    -0.0000     2.8310 cc         1 II4       0.441700
      8 N9           3.3940    -0.0000     1.5370 nd         1 II4      -0.609100
      9 N2          -0.6950    -0.0000    -1.2140 nv         1 II4      -0.939200
     10 C10          2.4400    -0.9200     6.9890 ca         1 II4      -0.067300
     11 C11          2.6900    -0.9220     5.6300 ca         1 II4      -0.139000
     12 C30         -0.7040    -0.0070     1.2020 ca         1 II4      -0.171000
     13 C13          1.1700     0.9190     5.3540 ca         1 II4      -0.139000
     14 C80          2.0540    -0.0020     4.8070 ca         1 II4       0.009800
     15 C14          0.9200     0.9130     6.7120 ca         1 II4      -0.111000
     16 C15          1.5550    -0.0060     7.5290 ca         1 II4      -0.131000
     17 H3           1.9250    -0.0990    -0.9330 ha         1 II4       0.145000
     18 H21N        -1.5980    -0.4270    -1.2730 hn         1 II4       0.429300
     19 H22N        -0.2960     0.4410    -2.0190 hn         1 II4       0.429300
     20 H30         -1.7880    -0.0070     1.1920 ha         1 II4       0.133000
     21 H6          -0.5840    -0.0080     3.3360 ha         1 II4       0.131000
     22 H91C         4.1690    -1.6410     8.0000 hc         1 II4       0.046700
     23 H92C         3.0670    -2.9050     7.4360 hc         1 II4       0.046700
     24 H93C         2.6460    -1.9300     8.8510 hc         1 II4       0.046700
     25 H8           4.4770     0.0030     3.3560 h5         1 II4       0.074800
     26 H11          3.3390    -1.6750     5.2000 ha         1 II4       0.143000
     27 H15          1.3580    -0.0090     8.5940 ha         1 II4       0.135000
     28 H13          0.6730     1.6380     4.7150 ha         1 II4       0.146000
     29 H14          0.2290     1.6290     7.1390 ha         1 II4       0.137000
     30 C9           3.1290    -1.9190     7.8820 c3         1 II4      -0.048800
@<TRIPOS>BOND
     1     1     2 ar
     2     1     9 1
     3     1    12 ar
     4     2     3 ar
     5     3     4 ar
     6     3     8 1
     7     4     5 ar
     8     4     6 1
     9     5    12 ar
    10    30    10 1
    11     6     7 1
    12     6    14 1
    13     7     8 2
    14    10    11 ar
    15    10    16 ar
    16    11    14 ar
    17    13    14 ar
    18    13    15 ar
    19    15    16 ar
    20     2    17 1
    21     9    18 1
    22     9    19 1
    23    12    20 1
    24     5    21 1
    25    30    22 1
    26    30    23 1
    27    30    24 1
    28     7    25 1
    29    11    26 1
    30    16    27 1
    31    13    28 1
    32    15    29 1
@<TRIPOS>SUBSTRUCTURE
     1 II4         1 TEMP              0 ****  ****    0 ROOT
