@<TRIPOS>MOLECULE
II4
   30    32     1     0     0
SMALL
bcc


@<TRIPOS>ATOM
      1 C2           0.0000     0.0000     0.0000 ca         1 II4       0.036600
      2 C3           1.3830     0.0000     0.0000 ca         1 II4      -0.128000
      3 C4           2.0750     0.0000     1.2140 ca         1 II4       0.107400
      4 C5           1.3570    -0.0010     2.4210 ca         1 II4      -0.308200
      5 C6          -0.0310    -0.0020     2.4050 ca         1 II4      -0.047000
      6 N7           2.3060    -0.0010     3.4290 na         1 II4       0.423600
      7 C8           3.5290    -0.0000     2.8310 cc         1 II4       0.252700
      8 N9           3.3940    -0.0000     1.5370 nd         1 II4      -0.532100
      9 N2          -0.6950    -0.0000    -1.2140 nv         1 II4      -0.475200
     10 C10          2.4400    -0.9200     6.9890 ca         1 II4      -0.074300
     11 C11          2.6900    -0.9220     5.6300 ca         1 II4      -0.101000
     12 C30         -0.7040    -0.0070     1.2020 ca         1 II4      -0.151000
     13 C13          1.1700     0.9190     5.3540 ca         1 II4      -0.104000
     14 C80          2.0540    -0.0020     4.8070 ca         1 II4      -0.159200
     15 C14          0.9200     0.9130     6.7120 ca         1 II4      -0.083000
     16 C15          1.5550    -0.0060     7.5290 ca         1 II4      -0.095000
     17 H3           1.9250    -0.0990    -0.9330 ha         1 II4       0.118000
     18 H21N        -1.5980    -0.4270    -1.2730 hn         1 II4       0.266300
     19 H22N        -0.2960     0.4410    -2.0190 hn         1 II4       0.266300
     20 H30         -1.7880    -0.0070     1.1920 ha         1 II4       0.107000
     21 H6          -0.5840    -0.0080     3.3360 ha         1 II4       0.102000
     22 H91C         4.1690    -1.6410     8.0000 hc         1 II4       0.010367
     23 H92C         3.0670    -2.9050     7.4360 hc         1 II4       0.010367
     24 H93C         2.6460    -1.9300     8.8510 hc         1 II4       0.010367
     25 H8           4.4770     0.0030     3.3560 h5         1 II4       0.027800
     26 H11          3.3390    -1.6750     5.2000 ha         1 II4       0.118000
     27 H15          1.3580    -0.0090     8.5940 ha         1 II4       0.109000
     28 H13          0.6730     1.6380     4.7150 ha         1 II4       0.120000
     29 H14          0.2290     1.6290     7.1390 ha         1 II4       0.107000
     30 C9           3.1290    -1.9190     7.8820 c3         1 II4       0.062200
@<TRIPOS>BOND
     1     1     2 ar  
     2     1     9 1   
     3     1    12 ar  
     4     2     3 ar  
     5     2    17 1   
     6     3     4 ar  
     7     3     8 1   
     8     4     5 ar  
     9     4     6 1   
    10     5    12 ar  
    11     5    21 1   
    12     6     7 1   
    13     6    14 1   
    14     7     8 2   
    15     7    25 1   
    16     9    18 1   
    17     9    19 1   
    18    10    11 ar  
    19    10    16 ar  
    20    10    30 1   
    21    11    14 ar  
    22    11    26 1   
    23    12    20 1   
    24    13    14 ar  
    25    13    15 ar  
    26    13    28 1   
    27    15    16 ar  
    28    15    29 1   
    29    16    27 1   
    30    22    30 1   
    31    23    30 1   
    32    24    30 1   
@<TRIPOS>SUBSTRUCTURE
     1 II4         1 TEMP              0 ****  ****    0 ROOT
