@<TRIPOS>MOLECULE
molecule
   31    31     1     0     0
SMALL
bcc


@<TRIPOS>ATOM
      1 C1           0.0000     0.0000     0.0000 c3         1 II6      -0.088400
      2 C2           2.0410     0.0000     1.4430 c3         1 II6      -0.072400
      3 C3          -0.0010    -1.2480     2.1640 c3         1 II6      -0.066400
      4 C4           1.5300     0.0000     0.0000 c3         1 II6      -0.069700
      5 C5          -0.5110    -1.2490     0.7210 c3         1 II6      -0.101700
      6 C6           1.5290    -1.2500     2.1640 c3         1 II6      -0.068700
      7 C7           2.0410     1.2490    -0.7210 c3         1 II6      -0.089100
      8 C8          -2.0410    -1.2480     0.7210 c3         1 II6       0.093800
      9 C9           2.0390    -1.2500     3.6070 c3         1 II6       0.148400
     10 N10         -2.5300    -1.3690    -0.6580 nz         1 II6      -0.808600
     11 O11          3.4630    -1.3680     3.6080 oh         1 II6      -0.604800
     12 H11C        -0.3600     0.8840     0.5130 hc         1 II6       0.037700
     13 H12C        -0.3600    -0.0020    -1.0220 hc         1 II6       0.037700
     14 H4           1.8890    -0.8870    -0.5080 hc         1 II6       0.057700
     15 H5          -0.1450    -2.1320     0.2110 hc         1 II6       0.071700
     16 H21C         1.6770     0.8840     1.9530 hc         1 II6       0.069200
     17 H22C         3.1240    -0.0030     1.4410 hc         1 II6       0.069200
     18 H6           1.8880    -2.1330     1.6500 hc         1 II6       0.070700
     19 H31C        -0.3610    -2.1340     2.6740 hc         1 II6       0.056200
     20 H32C        -0.3600    -0.3610     2.6720 hc         1 II6       0.056200
     21 H71C         1.7300     1.2190    -1.7580 hc         1 II6       0.046033
     22 H72C         3.1220     1.2790    -0.6680 hc         1 II6       0.046033
     23 H73C         1.6310     2.1330    -0.2460 hc         1 II6       0.046033
     24 H81C        -2.4030    -2.0840     1.3070 hx         1 II6       0.110200
     25 H82C        -2.4020    -0.3220     1.1530 hx         1 II6       0.110200
     26 H91C         1.6060    -2.0860     4.1420 h1         1 II6       0.026700
     27 H92C         1.7530    -0.3240     4.0910 h1         1 II6       0.026700
     28 H101        -1.9080    -1.9510    -1.1830 hn         1 II6       0.456467
     29 H102        -2.5730    -0.4620    -1.0780 hn         1 II6       0.456467
     30 H11          3.7630    -1.5430     4.4850 ho         1 II6       0.418000
     31 H103        -3.4460    -1.7730    -0.6530 hn         1 II6       0.456467
@<TRIPOS>BOND
     1     1     4 1
     2     1     5 1
     3     2     4 1
     4     2     6 1
     5     3     5 1
     6     3     6 1
     7     4     7 1
     8     5     8 1
     9     6     9 1
    10     8    10 1
    11     9    11 1
    12     1    12 1
    13     1    13 1
    14     4    14 1
    15     5    15 1
    16     2    16 1
    17     2    17 1
    18     6    18 1
    19     3    19 1
    20     3    20 1
    21     7    21 1
    22     7    22 1
    23     7    23 1
    24     8    24 1
    25     8    25 1
    26     9    26 1
    27     9    27 1
    28    10    28 1
    29    10    29 1
    30    11    30 1
    31    31    10 1
@<TRIPOS>SUBSTRUCTURE
     1 II6         1 TEMP              0 ****  ****    0 ROOT
