@<TRIPOS>MOLECULE
IIA
   61    65     1     0     0
SMALL
bcc


@<TRIPOS>ATOM
      1 C1          0.5500   -0.5100    0.5400 ca        1 IIA     -0.065000
      2 C2          1.8950   -0.3660    0.2510 ca        1 IIA     -0.148000
      3 C3          2.7980   -0.3430    1.3320 ca        1 IIA     -0.000200
      4 C4          2.3210   -0.4600    2.6930 ca        1 IIA     -0.120800
      5 C5          0.9490   -0.6120    2.9400 ca        1 IIA     -0.061000
      6 C6          0.0800   -0.6330    1.8670 ca        1 IIA     -0.140000
      7 N7          4.1990   -0.2770    1.3490 na        1 IIA     -0.025400
      8 C8          4.5910   -0.2530    2.7110 cc        1 IIA     -0.208300
      9 C9          3.4730   -0.3910    3.5450 cd        1 IIA     -0.071200
     10 C10         5.9870   -0.1600    3.1070 c         1 IIA      0.612300
     11 N11         6.2380    0.8100    4.2420 n4        1 IIA     -0.666800
     12 C12         6.8760    0.1550    5.4400 c3        1 IIA      0.119500
     13 C13         5.8790   -0.7110    6.2110 c3        1 IIA     -0.103400
     14 C14         6.5730   -1.3470    7.4200 c3        1 IIA      0.175300
     15 N15         7.1880   -0.3610    8.2900 n3        1 IIA     -0.743600
     16 C16         8.1240    0.4910    7.5730 c3        1 IIA      0.175300
     17 C17         7.4810    1.2020    6.3790 c3        1 IIA     -0.103400
     18 C27         7.7810   -0.9010    9.5260 c3        1 IIA      0.188500
     19 C28         7.7280    0.1360   10.6520 c3        1 IIA     -0.099100
     20 C32         7.1290   -2.1840   10.0380 c3        1 IIA     -0.099100
     21 C37         5.0240    0.1890    0.2670 c3        1 IIA     -0.007000
     22 C38         5.5120    1.5980    0.3960 cc        1 IIA      0.322600
     23 N41         5.9690    2.1700    1.5320 nd        1 IIA     -0.468300
     24 O42         6.3520    3.4030    1.2740 os        1 IIA     -0.111100
     25 C43         6.1510    3.6920   -0.1050 cd        1 IIA      0.419200
     26 C44         5.6130    2.5540   -0.6940 cc        1 IIA     -0.369600
     27 C45         6.5120    4.9850   -0.5600 cd        1 IIA     -0.244600
     28 S46         6.3630    5.4770   -2.1590 ss        1 IIA      0.133200
     29 C47         6.9600    7.0100   -1.8550 cd        1 IIA     -0.011700
     30 C48         7.2900    7.1800   -0.5150 cc        1 IIA     -0.158000
     31 C49         7.0300    6.0060    0.2360 cc        1 IIA     -0.081000
     32 CL50        7.1310    8.1740   -3.0350 cl        1 IIA      0.011600
     33 O56         6.9670   -0.7160    2.6330 o         1 IIA     -0.430100
     34 H1         -0.1820   -0.5320   -0.2850 ha        1 IIA      0.154000
     35 H2          2.2450   -0.2800   -0.7870 ha        1 IIA      0.149000
     36 H5          0.5840   -0.7160    3.9730 ha        1 IIA      0.151000
     37 H6         -1.0030   -0.7500    2.0360 ha        1 IIA      0.155000
     38 H9          3.4720   -0.4780    4.6300 ha        1 IIA      0.163000
     39 H11         6.8710    1.5440    3.8960 hn        1 IIA      0.466300
     40 H12         7.7060   -0.5020    5.0320 hx        1 IIA      0.116700
     41 H131        5.0120   -0.0900    6.5610 hc        1 IIA      0.068450
     42 H132        5.4850   -1.5340    5.5580 hc        1 IIA      0.068450
     43 H141        7.3160   -2.1110    7.0440 h1        1 IIA      0.056200
     44 H142        5.7790   -1.8920    8.0070 h1        1 IIA      0.056200
     45 H161        8.4940    1.2800    8.2870 h1        1 IIA      0.056200
     46 H162        9.0230   -0.0850    7.2000 h1        1 IIA      0.056200
     47 H171        8.2740    1.7950    5.8550 hc        1 IIA      0.068450
     48 H172        6.6890    1.9080    6.7420 hc        1 IIA      0.068450
     49 H27         8.8740   -1.1440    9.3350 h1        1 IIA      0.030700
     50 H281        8.2130   -0.2960   11.5600 hc        1 IIA      0.047200
     51 H282        8.2710    1.0700   10.3750 hc        1 IIA      0.047200
     52 H283        6.6720    0.3990   10.9000 hc        1 IIA      0.047200
     53 H321        7.6290   -2.4800   10.9930 hc        1 IIA      0.047200
     54 H322        7.2510   -3.0220    9.3100 hc        1 IIA      0.047200
     55 H323        6.0420   -2.0330   10.2450 hc        1 IIA      0.047200
     56 H371        4.4350    0.0970   -0.6920 h1        1 IIA      0.103700
     57 H372        5.9280   -0.4920    0.2040 h1        1 IIA      0.103700
     58 H44         5.3250    2.3890   -1.7270 ha        1 IIA      0.191000
     59 H48         7.6980    8.0990   -0.0840 ha        1 IIA      0.181000
     60 H49         7.2150    5.9170    1.3100 ha        1 IIA      0.168000
     61 H112        5.3520    1.2490    4.5160 hn        1 IIA      0.466300
@<TRIPOS>BOND
     1    1    2 ar  
     2    1    6 ar  
     3    1   34 1   
     4    2    3 ar  
     5    2   35 1   
     6    3    4 ar  
     7    3    7 1   
     8    4    5 ar  
     9    4    9 1   
    10    5    6 ar  
    11    5   36 1   
    12    6   37 1   
    13    7    8 1   
    14    7   21 1   
    15    8    9 2   
    16    8   10 1   
    17    9   38 1   
    18   10   11 1   
    19   10   33 2   
    20   11   12 1   
    21   11   39 1   
    22   11   61 1   
    23   12   13 1   
    24   12   17 1   
    25   12   40 1   
    26   13   14 1   
    27   13   41 1   
    28   13   42 1   
    29   14   15 1   
    30   14   43 1   
    31   14   44 1   
    32   15   16 1   
    33   15   18 1   
    34   16   17 1   
    35   16   45 1   
    36   16   46 1   
    37   17   47 1   
    38   17   48 1   
    39   18   19 1   
    40   18   20 1   
    41   18   49 1   
    42   19   50 1   
    43   19   51 1   
    44   19   52 1   
    45   20   53 1   
    46   20   54 1   
    47   20   55 1   
    48   21   22 1   
    49   21   56 1   
    50   21   57 1   
    51   22   23 2   
    52   22   26 1   
    53   23   24 1   
    54   24   25 1   
    55   25   26 2   
    56   25   27 1   
    57   26   58 1   
    58   27   28 1   
    59   27   31 2   
    60   28   29 1   
    61   29   30 2   
    62   29   32 1   
    63   30   31 1   
    64   30   59 1   
    65   31   60 1   
@<TRIPOS>SUBSTRUCTURE
     1 IIA         1 TEMP              0 ****  ****    0 ROOT
