@<TRIPOS>MOLECULE
IIB
   65    68     1     0     0
SMALL
bcc


@<TRIPOS>ATOM
      1 C1         -0.1000    0.3590    0.0060 ca        1 IIB     -0.082000
      2 C2          1.2560    0.3750   -0.3030 ca        1 IIB     -0.080300
      3 C3          2.1250   -0.3240    0.5710 ca        1 IIB     -0.005200
      4 C4          1.5830   -1.0140    1.7240 ca        1 IIB     -0.077800
      5 C5          0.2080   -1.0060    1.9880 ca        1 IIB     -0.075000
      6 C6         -0.6210   -0.3160    1.1260 ca        1 IIB     -0.125000
      7 N7          3.5130   -0.5500    0.5370 na        1 IIB     -0.011400
      8 C8          3.8510   -1.3050    1.6730 cc        1 IIB     -0.138300
      9 C9          2.6950   -1.6170    2.4090 cd        1 IIB      0.037100
     10 C10         5.2310   -1.7220    1.9660 c         1 IIB      0.721300
     11 N11         5.5840   -1.5950    3.3690 n         1 IIB     -0.360500
     12 C12         6.7590   -1.8080    3.9500 c2        1 IIB      0.407600
     13 C13         8.0060   -2.2440    3.2580 c3        1 IIB     -0.240200
     14 C14         9.1920   -1.3490    3.6930 c3        1 IIB      0.179800
     15 N15         9.3680   -1.2080    5.1140 n3        1 IIB     -0.731600
     16 C16         8.1530   -0.7620    5.7530 c3        1 IIB      0.179800
     17 C17         6.9020   -1.6120    5.4320 c3        1 IIB     -0.240200
     18 C27        10.0690   -2.2760    5.8420 c3        1 IIB      0.185500
     19 C28        10.8630   -1.7000    7.0190 c3        1 IIB     -0.100600
     20 C32        11.0260   -3.1120    4.9940 c3        1 IIB     -0.100600
     21 C37         4.5070    0.0890   -0.2850 c3        1 IIB     -0.011000
     22 C38         5.2980    1.1520    0.4100 cc        1 IIB      0.307600
     23 N41         5.8940    1.0220    1.6150 nd        1 IIB     -0.433300
     24 O42         6.5360    2.1340    1.9030 os        1 IIB     -0.109100
     25 C43         6.3730    3.0750    0.8460 cd        1 IIB      0.408200
     26 C44         5.5820    2.4730   -0.1250 cc        1 IIB     -0.367600
     27 C45         7.0010    4.3370    0.9880 cd        1 IIB     -0.239600
     28 S46         6.8880    5.5590   -0.1580 ss        1 IIB      0.128200
     29 C47         7.8400    6.6190    0.7210 cd        1 IIB     -0.012700
     30 C48         8.2680    6.0570    1.9180 cc        1 IIB     -0.158000
     31 C49         7.7820    4.7340    2.0730 cc        1 IIB     -0.087000
     32 CL50        8.2140    8.1570    0.1990 cl        1 IIB      0.010600
     33 O56         6.0420   -2.1510    1.1490 o         1 IIB     -0.469100
     34 C7          2.6410   -2.3960    3.5760 ch        1 IIB      0.188500
     35 N1          2.5920   -3.0380    4.5460 n1        1 IIB     -0.327800
     36 C11         1.7170    1.1000   -1.5070 c3        1 IIB     -0.061800
     37 H1         -0.8030    0.8960   -0.6540 ha        1 IIB      0.153000
     38 H5         -0.1890   -1.5440    2.8620 ha        1 IIB      0.157000
     39 H6         -1.7080   -0.2890    1.3060 ha        1 IIB      0.156000
     40 H11         4.8300   -1.2490    3.9500 hn        1 IIB      0.365500
     41 H12         8.2720    1.8380    3.6280 ha        1 IIB      0.003000
     42 H131        7.9390   -2.2160    2.1380 hc        1 IIB      0.115700
     43 H132        8.2080   -3.3110    3.5620 hc        1 IIB      0.115700
     44 H141        9.0150   -0.3140    3.2730 h1        1 IIB      0.088200
     45 H142       10.1240   -1.7550    3.2110 h1        1 IIB      0.088200
     46 H161        8.2840   -0.7590    6.8720 h1        1 IIB      0.088200
     47 H162        7.9560    0.2970    5.4170 h1        1 IIB      0.088200
     48 H171        7.0160   -2.6350    5.8940 hc        1 IIB      0.115700
     49 H172        6.0100   -1.1230    5.9060 hc        1 IIB      0.115700
     50 H27         9.2960   -2.9920    6.2680 h1        1 IIB      0.018700
     51 H281       10.2070   -1.1240    7.7140 hc        1 IIB      0.050867
     52 H282       11.3240   -2.5430    7.5880 hc        1 IIB      0.050867
     53 H283       11.6740   -1.0250    6.6550 hc        1 IIB      0.050867
     54 H321       11.5340   -3.8540    5.6590 hc        1 IIB      0.050867
     55 H322       10.4800   -3.6760    4.2000 hc        1 IIB      0.050867
     56 H323       11.8110   -2.4750    4.5210 hc        1 IIB      0.050867
     57 H371        5.2260   -0.7130   -0.6410 h1        1 IIB      0.107200
     58 H372        4.0110    0.5390   -1.1900 h1        1 IIB      0.107200
     59 H44         5.2410    2.8730   -1.0750 ha        1 IIB      0.189000
     60 H48         8.8990    6.5620    2.6540 ha        1 IIB      0.180000
     61 H49         7.9960    4.1030    2.9410 ha        1 IIB      0.169000
     62 H111        0.8540    1.5790   -2.0370 hc        1 IIB      0.054367
     63 H112        2.2070    0.3990   -2.2290 hc        1 IIB      0.054367
     64 H113        2.4360    1.9120   -1.2320 hc        1 IIB      0.054367
     65 H114        7.7870    2.1010    4.0220 ha        1 IIB      0.003000
@<TRIPOS>BOND
     1    1    2 ar
     2    1    6 ar
     3    1   37 1
     4    2    3 ar
     5    2   36 1
     6    3    4 ar
     7    3    7 1
     8    4    5 ar
     9    4    9 1
    10    5    6 ar
    11    5   38 1
    12    6   39 1
    13    7    8 1
    14    7   21 1
    15    8    9 2
    16    8   10 1
    17    9   34 1
    18   10   11 1
    19   10   33 2
    20   11   12 2
    21   11   40 1
    22   12   13 1
    23   12   17 1
    24   13   14 1
    25   13   42 1
    26   13   43 1
    27   14   15 1
    28   14   44 1
    29   14   45 1
    30   15   16 1
    31   15   18 1
    32   16   17 1
    33   16   46 1
    34   16   47 1
    35   17   48 1
    36   17   49 1
    37   18   19 1
    38   18   20 1
    39   18   50 1
    40   19   51 1
    41   19   52 1
    42   19   53 1
    43   20   54 1
    44   20   55 1
    45   20   56 1
    46   21   22 1
    47   21   57 1
    48   21   58 1
    49   22   23 2
    50   22   26 1
    51   23   24 1
    52   24   25 1
    53   25   26 2
    54   25   27 1
    55   26   59 1
    56   27   28 1
    57   27   31 2
    58   28   29 1
    59   29   30 2
    60   29   32 1
    61   30   31 1
    62   30   60 1
    63   31   61 1
    64   34   35 3
    65   36   62 1
    66   36   63 1
    67   36   64 1
    68   41   65 1
@<TRIPOS>SUBSTRUCTURE
     1 IIB         1 TEMP              0 ****  ****    0 ROOT
