@<TRIPOS>MOLECULE
IID
   61    64     1     0     0
SMALL
bcc


@<TRIPOS>ATOM
      1 C1           0.0000     0.0000     0.0000 ca         1 IID      -0.079000
      2 C2           1.3770     0.0000     0.0000 ca         1 IID      -0.102000
      3 C3           2.0700     0.0000     1.2070 ca         1 IID      -0.211200
      4 C4           1.3490    -0.0110     2.4180 ca         1 IID      -0.110800
      5 C5          -0.0510    -0.0100     2.3920 ca         1 IID      -0.042000
      6 C6          -0.7070    -0.0050     1.1950 ca         1 IID      -0.132000
      7 N7           3.4080    -0.0060     1.5250 na         1 IID       0.478600
      8 C8           3.5380    -0.0130     2.9000 cc         1 IID      -0.315300
      9 C9           2.3020    -0.0150     3.4650 cd         1 IID      -0.134200
     10 C11          4.8120    -0.0170     3.6350 c          1 IID       0.634300
     11 N12          4.8120    -0.0340     4.9830 ns         1 IID      -0.169900
     12 C13          6.0760    -0.1520     5.7130 c3         1 IID       0.010700
     13 C14          5.9210     0.4560     7.1100 c3         1 IID      -0.039900
     14 C17          4.5120    -0.0020     0.5630 c3         1 IID      -0.017400
     15 C18          4.8040     1.4150     0.1400 ca         1 IID      -0.083300
     16 C21          5.6880     2.1850     0.8720 ca         1 IID      -0.128000
     17 C22          5.9590     3.4860     0.4880 ca         1 IID      -0.059000
     18 C23          5.3460     4.0180    -0.6300 ca         1 IID      -0.215000
     19 C24          4.4580     3.2470    -1.3670 ca         1 IID       0.131100
     20 C25          4.1840     1.9450    -0.9750 ca         1 IID      -0.132000
     21 C26          7.2070     0.2260     7.9060 c3         1 IID       0.136300
     22 O1           3.8540     3.7680    -2.4670 os         1 IID      -0.283900
     23 O45          5.8650    -0.0050     3.0270 o          1 IID      -0.682100
     24 C7           4.3300     5.1090    -2.6030 c3         1 IID       0.216700
     25 C10          6.4490    -1.6320     5.8550 c3         1 IID      -0.039900
     26 C12          7.7080    -1.7530     6.7160 c3         1 IID       0.136300
     27 N1           7.4460    -1.2130     8.0550 n3         1 IID      -0.517600
     28 C16          8.6940    -1.3560     8.8180 c3         1 IID       0.115500
     29 C19          8.4950    -0.7990    10.2290 c3         1 IID      -0.005600
     30 C20          9.0720    -2.8370     8.9030 c3         1 IID      -0.005600
     31 H1          -0.5370     0.0040    -0.9410 ha         1 IID       0.101000
     32 H2           1.9200     0.0040    -0.9370 ha         1 IID       0.105000
     33 H5          -0.6110    -0.0140     3.3190 ha         1 IID       0.099000
     34 H6          -1.7900    -0.0050     1.1780 ha         1 IID       0.102000
     35 H9           2.0850    -0.0200     4.5260 ha         1 IID       0.123000
     36 H12          3.9500     0.0510     5.4840 hn         1 IID       0.182500
     37 H13          6.8610     0.3680     5.1780 h1         1 IID       0.058700
     38 H141         5.0910    -0.0180     7.6200 hc         1 IID       0.026700
     39 H142         5.7370     1.5200     7.0220 hc         1 IID       0.026700
     40 H171         4.2370    -0.5880    -0.3060 h1         1 IID       0.059200
     41 H172         5.3940    -0.4300     1.0230 h1         1 IID       0.059200
     42 H21          6.1690     1.7690     1.7490 ha         1 IID       0.140000
     43 H22          6.6520     4.0880     1.0630 ha         1 IID       0.101000
     44 H23          5.5600     5.0360    -0.9330 ha         1 IID       0.131000
     45 H25          3.4910     1.3410    -1.5480 ha         1 IID       0.119000
     46 H261         8.0400     0.6750     7.3790 h1         1 IID       0.019200
     47 H262         7.1080     0.6760     8.8860 h1         1 IID       0.019200
     48 H7C1         4.0710     5.6760    -1.7170 h1         1 IID       0.002367
     49 H7C2         5.4070     5.0990    -2.7250 h1         1 IID       0.002367
     50 H7C3         3.8730     5.5670    -3.4720 h1         1 IID       0.002367
     51 H101         6.6410    -2.0510     4.8750 hc         1 IID       0.026700
     52 H102         5.6350    -2.1660     6.3300 hc         1 IID       0.026700
     53 H121         8.5130    -1.1930     6.2550 h1         1 IID       0.019200
     54 H122         7.9880    -2.7960     6.7980 h1         1 IID       0.019200
     55 H16          9.4860    -0.8090     8.3220 h1         1 IID       0.011700
     56 H191         9.2150    -1.2500    10.9010 hc         1 IID       0.010367
     57 H192         8.6380     0.2750    10.2160 hc         1 IID       0.010367
     58 H193         7.4920    -1.0260    10.5690 hc         1 IID       0.010367
     59 H201         8.1750    -3.4330     9.0120 hc         1 IID       0.010367
     60 H202         9.7180    -2.9970     9.7580 hc         1 IID       0.010367
     61 H203         9.5920    -3.1290     7.9980 hc         1 IID       0.010367
@<TRIPOS>BOND
     1     1     2 ar  
     2     1     6 ar  
     3     1    31 1   
     4     2     3 ar  
     5     2    32 1   
     6     3     4 ar  
     7     3     7 1   
     8     4     5 ar  
     9     4     9 1   
    10     5     6 ar  
    11     5    33 1   
    12     6    34 1   
    13     7     8 1   
    14     7    14 1   
    15     8     9 2   
    16     8    10 1   
    17     9    35 1   
    18    10    11 1   
    19    10    23 2   
    20    11    12 1   
    21    11    36 1   
    22    12    13 1   
    23    12    25 1   
    24    12    37 1   
    25    13    21 1   
    26    13    38 1   
    27    13    39 1   
    28    14    15 1   
    29    14    40 1   
    30    14    41 1   
    31    15    16 ar  
    32    15    20 ar  
    33    16    17 ar  
    34    16    42 1   
    35    17    18 ar  
    36    17    43 1   
    37    18    19 ar  
    38    18    44 1   
    39    19    20 ar  
    40    19    22 1   
    41    20    45 1   
    42    21    27 1   
    43    21    46 1   
    44    21    47 1   
    45    22    24 1   
    46    24    48 1   
    47    24    49 1   
    48    24    50 1   
    49    25    26 1   
    50    25    51 1   
    51    25    52 1   
    52    26    27 1   
    53    26    53 1   
    54    26    54 1   
    55    27    28 1   
    56    28    29 1   
    57    28    30 1   
    58    28    55 1   
    59    29    56 1   
    60    29    57 1   
    61    29    58 1   
    62    30    59 1   
    63    30    60 1   
    64    30    61 1   
@<TRIPOS>SUBSTRUCTURE
     1 IID         1 TEMP              0 ****  ****    0 ROOT
