@<TRIPOS>MOLECULE
IIE
   61    64     1     0     0
SMALL
bcc


@<TRIPOS>ATOM
      1 C1           0.0000     0.0000     0.0000 ca         1 IIE      -0.078000
      2 C2           1.3770     0.0000     0.0000 ca         1 IIE      -0.104000
      3 C3           2.0690     0.0000     1.2080 ca         1 IIE      -0.209200
      4 C4           1.3480    -0.0020     2.4190 ca         1 IIE      -0.105800
      5 C5          -0.0520    -0.0030     2.3920 ca         1 IIE      -0.038000
      6 C6          -0.7080    -0.0020     1.1950 ca         1 IIE      -0.132000
      7 N7           3.4070     0.0060     1.5260 na         1 IIE       0.493600
      8 C8           3.5370    -0.0010     2.9020 cc         1 IIE      -0.300300
      9 C9           2.3010    -0.0020     3.4670 cd         1 IIE      -0.128200
     10 C10          4.8100     0.0010     3.6370 c          1 IIE       0.637300
     11 N11          4.8120     0.1000     4.9810 ns         1 IIE      -0.166900
     12 C12          6.0800     0.2140     5.7060 c3         1 IIE       0.014700
     13 C13          6.6460    -1.1860     5.9690 c3         1 IIE      -0.040900
     14 C14          7.9090    -1.0650     6.8240 c3         1 IIE       0.136300
     15 N15          7.5790    -0.4510     8.1150 n3         1 IIE      -0.517600
     16 C16          7.1490     0.9250     7.8460 c3         1 IIE       0.136300
     17 C17          5.8440     0.9140     7.0480 c3         1 IIE      -0.040900
     18 C27          8.8330    -0.3620     8.8730 c3         1 IIE       0.115500
     19 C28          8.5740     0.3460    10.2050 c3         1 IIE      -0.005600
     20 C32          9.3690    -1.7700     9.1400 c3         1 IIE      -0.005600
     21 C37          4.5120     0.0140     0.5650 c3         1 IIE      -0.138700
     22 C38          4.9760     1.4310     0.3460 c          1 IIE       0.553100
     23 C43          7.6810     3.3310    -1.0220 ca         1 IIE      -0.105500
     24 C40          8.0330     4.6360    -1.3050 ca         1 IIE      -0.080500
     25 C45          6.3500     3.0070    -0.7910 ca         1 IIE      -0.087400
     26 C47          7.0610     5.6200    -1.3590 ca         1 IIE      -0.046600
     27 C48          5.7350     5.2990    -1.1300 ca         1 IIE      -0.080500
     28 C49          5.3770     3.9940    -0.8510 ca         1 IIE      -0.105500
     29 N12          5.9900     1.6840    -0.5040 ns         1 IIE      -0.026100
     30 O14          4.4360     2.3440     0.9350 o          1 IIE      -0.620100
     31 Cl50         7.5070     7.2590    -1.7150 cl         1 IIE      -0.030400
     32 O56          5.8620    -0.0880     3.0330 o          1 IIE      -0.689100
     33 H1          -0.5360     0.0010    -0.9410 ha         1 IIE       0.100000
     34 H2           1.9200     0.0020    -0.9370 ha         1 IIE       0.097000
     35 H5          -0.6130    -0.0040     3.3190 ha         1 IIE       0.100000
     36 H6          -1.7910    -0.0020     1.1770 ha         1 IIE       0.102000
     37 H9           2.0830    -0.0070     4.5280 ha         1 IIE       0.124000
     38 H11          3.9460     0.1100     5.4830 hn         1 IIE       0.181500
     39 H12          6.7890     0.7850     5.1200 h1         1 IIE       0.056700
     40 H131         5.9090    -1.7800     6.4960 hc         1 IIE       0.027700
     41 H132         6.8920    -1.6580     5.0260 hc         1 IIE       0.027700
     42 H141         8.6330    -0.4460     6.3080 h1         1 IIE       0.018450
     43 H142         8.3250    -2.0510     6.9910 h1         1 IIE       0.018450
     44 H161         6.9890     1.4410     8.7860 h1         1 IIE       0.018450
     45 H162         7.9150     1.4350     7.2750 h1         1 IIE       0.018450
     46 H171         5.0850     0.3800     7.6050 hc         1 IIE       0.027700
     47 H172         5.5220     1.9330     6.8700 hc         1 IIE       0.027700
     48 H27          9.5610     0.1990     8.3010 h1         1 IIE       0.011700
     49 H281         8.5940     1.4190    10.0540 hc         1 IIE       0.010200
     50 H282         7.6030     0.0530    10.5870 hc         1 IIE       0.010200
     51 H283         9.3410     0.0680    10.9170 hc         1 IIE       0.010200
     52 H321         8.5410    -2.4420     9.3300 hc         1 IIE       0.010200
     53 H322         9.9240    -2.1150     8.2760 hc         1 IIE       0.010200
     54 H323        10.0220    -1.7490    10.0040 hc         1 IIE       0.010200
     55 H371         4.1760    -0.4050    -0.3750 h1         1 IIE       0.064700
     56 H372         5.3320    -0.5790     0.9530 h1         1 IIE       0.064700
     57 H40          9.0700     4.8900    -1.4840 ha         1 IIE       0.115000
     58 H48          4.9760     6.0710    -1.1750 ha         1 IIE       0.115000
     59 H49          4.3380     3.7440    -0.6720 ha         1 IIE       0.124500
     60 HA           6.4690     0.9270    -0.9510 hn         1 IIE       0.167500
     61 H43          8.4420     2.5610    -0.9770 ha         1 IIE       0.124500
@<TRIPOS>BOND
     1     1     2 ar  
     2     1     6 ar  
     3     1    33 1   
     4     2     3 ar  
     5     2    34 1   
     6     3     4 ar  
     7     3     7 1   
     8     4     5 ar  
     9     4     9 1   
    10     5     6 ar  
    11     5    35 1   
    12     6    36 1   
    13     7     8 1   
    14     7    21 1   
    15     8     9 2   
    16     8    10 1   
    17     9    37 1   
    18    10    11 1   
    19    10    32 2   
    20    11    12 1   
    21    11    38 1   
    22    12    13 1   
    23    12    17 1   
    24    12    39 1   
    25    13    14 1   
    26    13    40 1   
    27    13    41 1   
    28    14    15 1   
    29    14    42 1   
    30    14    43 1   
    31    15    16 1   
    32    15    18 1   
    33    16    17 1   
    34    16    44 1   
    35    16    45 1   
    36    17    46 1   
    37    17    47 1   
    38    18    19 1   
    39    18    20 1   
    40    18    48 1   
    41    19    49 1   
    42    19    50 1   
    43    19    51 1   
    44    20    52 1   
    45    20    53 1   
    46    20    54 1   
    47    21    22 1   
    48    21    55 1   
    49    21    56 1   
    50    22    29 1   
    51    22    30 2   
    52    23    24 ar  
    53    23    25 ar  
    54    23    61 1   
    55    24    26 ar  
    56    24    57 1   
    57    25    28 ar  
    58    25    29 1   
    59    26    27 ar  
    60    26    31 1   
    61    27    28 ar  
    62    27    58 1   
    63    28    59 1   
    64    29    60 1   
@<TRIPOS>SUBSTRUCTURE
     1 IIE         1 TEMP              0 ****  ****    0 ROOT
