@<TRIPOS>MOLECULE
molecule
   57    60     1     0     0
SMALL
bcc


@<TRIPOS>ATOM
      1 N1           0.0000     0.0000     0.0000 n          1 IIG      -0.478800
      2 C4           0.3700    -2.4190    -2.4270 ca         1 IIG      -0.108000
      3 C5          -0.1880    -2.1380    -1.1780 ca         1 IIG      -0.110600
      4 C6          -0.2840    -3.1490    -0.2200 ca         1 IIG      -0.108000
      5 C7           0.1710    -4.4180    -0.5120 ca         1 IIG      -0.096500
      6 C8           1.2120    -6.0790    -2.0660 c3         1 IIG       0.163100
      7 C10          1.7040    -6.7500    -0.7820 c3         1 IIG      -0.130100
      8 C13         -0.7320     0.8400     0.9520 cx         1 IIG       0.051700
      9 C15         -1.5510     0.1310     2.0330 cx         1 IIG      -0.151400
     10 C17          3.5060    -0.0010     1.4420 c3         1 IIG      -0.080900
     11 C20          5.5460    -1.2510     0.7210 cx         1 IIG      -0.182700
     12 C21          6.2510    -2.3620    -0.0600 cx         1 IIG      -0.130400
     13 C22          6.2520    -0.9300    -0.5970 cx         1 IIG      -0.130400
     14 C1           4.0150    -1.2500     0.7210 c3         1 IIG       0.186800
     15 C18          3.5050    -1.2500    -0.7210 c3         1 IIG      -0.080900
     16 C19          1.9750    -1.2500    -0.7210 c3         1 IIG      -0.104400
     17 O3           3.5390    -2.4170     1.3950 oh         1 IIG      -0.599800
     18 C16          1.9760     0.0000     1.4420 c3         1 IIG      -0.104400
     19 C12          1.4650     0.0000     0.0000 c3         1 IIG       0.129700
     20 C14         -2.2590     0.8320     0.8710 cx         1 IIG      -0.151400
     21 C11         -0.6730    -0.7760    -0.8710 c          1 IIG       0.683700
     22 O2          -1.6820    -0.3550    -1.4060 o          1 IIG      -0.569100
     23 C3           0.8160    -3.6930    -2.7080 ca         1 IIG      -0.096500
     24 C2           0.7230    -4.6890    -1.7510 ca         1 IIG      -0.093300
     25 C9           0.0680    -6.9000    -2.6650 c3         1 IIG       0.597900
     26 F2          -0.9840    -6.9730    -1.7450 f          1 IIG      -0.222300
     27 F3          -0.3810    -6.2870    -3.8390 f          1 IIG      -0.222300
     28 F1           0.5220    -8.1900    -2.9560 f          1 IIG      -0.222300
     29 O1           2.2870    -6.0050    -3.0060 oh         1 IIG      -0.577800
     30 H6          -0.7160    -2.9370     0.7510 ha         1 IIG       0.144500
     31 H7           0.0970    -5.2030     0.2310 ha         1 IIG       0.148000
     32 H10          0.8610    -6.9350    -0.1260 hc         1 IIG       0.061367
     33 H10A         2.1840    -7.6900    -1.0260 hc         1 IIG       0.061367
     34 H10B         2.4130    -6.1010    -0.2840 hc         1 IIG       0.061367
     35 H13         -0.2980     1.7840     1.2580 h1         1 IIG       0.092700
     36 H15         -1.6040     0.6400     2.9880 hc         1 IIG       0.084950
     37 H15A        -1.5440    -0.9510     1.9910 hc         1 IIG       0.084950
     38 H17          3.8660     0.8830     0.9290 hc         1 IIG       0.051950
     39 H17A         3.8660    -0.0030     2.4640 hc         1 IIG       0.051950
     40 H20          6.0690    -0.9170     1.6080 hc         1 IIG       0.081700
     41 H21          5.6010    -3.0560    -0.5780 hc         1 IIG       0.078450
     42 H21A         7.1900    -2.7040     0.3600 hc         1 IIG       0.078450
     43 H22          5.6010    -0.7480    -1.4440 hc         1 IIG       0.078450
     44 H22A         7.1910    -0.3970    -0.5070 hc         1 IIG       0.078450
     45 H18          3.8650    -0.3640    -1.2300 hc         1 IIG       0.051950
     46 H18A         3.8640    -2.1370    -1.2300 hc         1 IIG       0.051950
     47 H19          1.6150    -2.1330    -0.2080 hc         1 IIG       0.065950
     48 H19A         1.6150    -1.2470    -1.7430 hc         1 IIG       0.065950
     49 HO3          4.0360    -2.5490     2.1850 ho         1 IIG       0.404000
     50 H16          1.6170     0.8860     1.9510 hc         1 IIG       0.065950
     51 H16A         1.6160    -0.8860     1.9510 hc         1 IIG       0.065950
     52 H12          1.8310     0.8830    -0.5100 h1         1 IIG       0.049700
     53 H14         -2.6850     0.1780     0.1200 hc         1 IIG       0.084950
     54 H14A        -2.7450     1.7690     1.1170 hc         1 IIG       0.084950
     55 H3           1.2490    -3.9130    -3.6760 ha         1 IIG       0.148000
     56 HO1          2.8470    -6.7570    -2.9030 ho         1 IIG       0.418000
     57 H4           0.4450    -1.6400    -3.1750 ha         1 IIG       0.144500
@<TRIPOS>BOND
     1    19     1 1
     2     1     8 1
     3     1    21 1
     4    23     2 ar
     5     2     3 ar
     6     2    57 1
     7     3    21 1
     8     3     4 ar
     9     5     4 ar
    10     4    30 1
    11    24     5 ar
    12     5    31 1
    13    25     6 1
    14    29     6 1
    15     6    24 1
    16     6     7 1
    17     7    32 1
    18     7    33 1
    19     7    34 1
    20     9     8 1
    21    20     8 1
    22     8    35 1
    23     9    20 1
    24     9    36 1
    25     9    37 1
    26    14    10 1
    27    10    18 1
    28    10    38 1
    29    10    39 1
    30    13    11 1
    31    12    11 1
    32    14    11 1
    33    11    40 1
    34    13    12 1
    35    12    41 1
    36    12    42 1
    37    13    43 1
    38    13    44 1
    39    17    14 1
    40    14    15 1
    41    15    16 1
    42    15    45 1
    43    15    46 1
    44    16    19 1
    45    16    47 1
    46    16    48 1
    47    17    49 1
    48    19    18 1
    49    18    50 1
    50    18    51 1
    51    19    52 1
    52    20    53 1
    53    20    54 1
    54    21    22 2
    55    23    24 ar
    56    23    55 1
    57    28    25 1
    58    26    25 1
    59    25    27 1
    60    29    56 1
@<TRIPOS>SUBSTRUCTURE
     1 IIG         1 TEMP              0 ****  ****    0 ROOT
