@<TRIPOS>MOLECULE
molecule
   36    38     1     0     0
SMALL
bcc


@<TRIPOS>ATOM
      1 C1           0.0000     0.0000     0.0000 c3         1 III       0.158100
      2 N2           1.4690     0.0000     0.0000 nh         1 III      -0.726300
      3 C3           1.9950     0.0000     1.3720 c3         1 III       0.158100
      4 C4           1.9630    -1.0670    -0.7190 ca         1 III       0.685200
      5 N5           1.7150    -2.3130    -0.3430 nb         1 III      -0.790000
      6 C6           2.1850    -3.3500    -1.0290 ca         1 III       0.876900
      7 N7           2.9230    -3.2150    -2.1130 nb         1 III      -0.784000
      8 C8           3.2310    -1.9940    -2.5760 ca         1 III       0.472600
      9 C9           4.0130    -1.8130    -3.7260 ca         1 III      -0.193300
     10 C10          4.2970    -0.5500    -4.1540 ca         1 III      -0.092000
     11 C11          3.8240     0.5640    -3.4660 ca         1 III      -0.158000
     12 C12          3.0630     0.4230    -2.3440 ca         1 III      -0.063000
     13 C13          2.7460    -0.8590    -1.8820 ca         1 III      -0.288600
     14 N14          1.8890    -4.6260    -0.5840 nh         1 III      -0.667300
     15 C15          2.4950    -5.6480    -1.4660 c3         1 III       0.156800
     16 C16          1.5250    -6.8450    -1.5020 c3         1 III      -0.092900
     17 C17          0.3300    -6.4230    -0.6170 c3         1 III      -0.092900
     18 C18          0.4260    -4.8770    -0.6190 c3         1 III       0.156800
     19 H1          -0.3610     0.9650     0.3340 h1         1 III       0.044033
     20 H2          -0.3610    -0.1940    -1.0030 h1         1 III       0.044033
     21 H3          -0.3610    -0.7720     0.6690 h1         1 III       0.044033
     22 H4           1.5080    -0.7790     1.9460 h1         1 III       0.044033
     23 H5           1.8030     0.9620     1.8320 h1         1 III       0.044033
     24 H6           3.0630    -0.1830     1.3490 h1         1 III       0.044033
     25 H7           4.3870    -2.6710    -4.2710 ha         1 III       0.149000
     26 H8           4.9000    -0.4110    -5.0430 ha         1 III       0.133000
     27 H9           4.0650     1.5560    -3.8270 ha         1 III       0.132000
     28 H10          2.7000     1.2970    -1.8170 ha         1 III       0.152000
     29 H11          2.6200    -5.2460    -2.4630 h1         1 III       0.061700
     30 H12          3.4510    -5.9610    -1.0640 h1         1 III       0.061700
     31 H13          2.0030    -7.7260    -1.0910 hc         1 III       0.051700
     32 H14          1.1940    -7.0280    -2.5170 hc         1 III       0.051700
     33 H15         -0.6050    -6.7480    -1.0580 hc         1 III       0.051700
     34 H16          0.4440    -6.8110     0.3880 hc         1 III       0.051700
     35 H17         -0.0520    -4.4650     0.2620 h1         1 III       0.061700
     36 H18         -0.0080    -4.4700    -1.5240 h1         1 III       0.061700
@<TRIPOS>BOND
     1    17    18 1
     2    17    16 1
     3    18    14 1
     4    16    15 1
     5    14    15 1
     6    14     6 1
     7     6     5 ar
     8     6     7 ar
     9     5     4 ar
    10     7     8 ar
    11     1     2 1
    12     4     2 1
    13     4    13 ar
    14     8    13 ar
    15     8     9 ar
    16     2     3 1
    17    13    12 ar
    18     9    10 ar
    19    12    11 ar
    20    10    11 ar
    21     1    19 1
    22     1    20 1
    23     1    21 1
    24     3    22 1
    25     3    23 1
    26     3    24 1
    27     9    25 1
    28    10    26 1
    29    11    27 1
    30    12    28 1
    31    15    29 1
    32    15    30 1
    33    16    31 1
    34    16    32 1
    35    17    33 1
    36    17    34 1
    37    18    35 1
    38    18    36 1
@<TRIPOS>SUBSTRUCTURE
     1 III         1 TEMP              0 ****  ****    0 ROOT
