@<TRIPOS>MOLECULE
molecule
   33    35     1     0     0
SMALL
bcc


@<TRIPOS>ATOM
      1 C1           0.0000     0.0000     0.0000 c          1 IIN       0.710100
      2 O1          -0.6950    -0.0040    -0.9970 o          1 IIN      -0.541500
      3 N2           1.3440     0.0000     0.0000 n          1 IIN      -0.514800
      4 C3           1.8150     0.0000     1.3900 c3         1 IIN       0.414200
      5 C3A          0.5800     0.0090     2.2540 ca         1 IIN      -0.163300
      6 C4           0.3840     0.0130     3.6160 ca         1 IIN      -0.092000
      7 C5          -0.9020     0.0140     4.1290 ca         1 IIN      -0.087000
      8 C6          -1.9920     0.0090     3.2750 ca         1 IIN      -0.093000
      9 C7          -1.8060     0.0050     1.9080 ca         1 IIN      -0.040000
     10 C7A         -0.5120     0.0050     1.3840 ca         1 IIN      -0.139600
     11 CM2          2.1960    -0.0030    -1.1910 c3         1 IIN       0.106300
     12 N3           2.6200     1.2010     1.6470 nz         1 IIN      -0.818600
     13 C1'          2.6300    -1.2380     1.6610 ca         1 IIN      -0.131300
     14 C2'          2.4010    -2.3890     0.9330 ca         1 IIN      -0.136500
     15 C3'          3.1480    -3.5260     1.1830 ca         1 IIN      -0.113000
     16 C4'          4.1240    -3.5090     2.1600 ca         1 IIN      -0.087000
     17 C5'          4.3540    -2.3570     2.8890 ca         1 IIN      -0.113000
     18 C6'          3.6090    -1.2200     2.6360 ca         1 IIN      -0.136500
     19 H4           1.2340     0.0170     4.2860 ha         1 IIN       0.136000
     20 H5          -1.0560     0.0170     5.2010 ha         1 IIN       0.163000
     21 H6          -2.9950     0.0100     3.6820 ha         1 IIN       0.166000
     22 H7          -2.6610     0.0020     1.2430 ha         1 IIN       0.173000
     23 HM21         1.8980    -0.8130    -1.8460 h1         1 IIN       0.063700
     24 HM22         2.0920     0.9410    -1.7120 h1         1 IIN       0.063700
     25 HM23         3.2290    -0.1400    -0.8950 h1         1 IIN       0.063700
     26 HN31         2.7730     1.2960     2.6310 hn         1 IIN       0.455800
     27 HN32         3.5000     1.1190     1.1780 hn         1 IIN       0.455800
     28 H2'          1.6110    -2.4130     0.1920 ha         1 IIN       0.154500
     29 H3'          2.9400    -4.4400     0.6410 ha         1 IIN       0.156500
     30 H4'          4.7090    -4.3990     2.3560 ha         1 IIN       0.158000
     31 H5'          5.1400    -2.3350     3.6330 ha         1 IIN       0.156500
     32 H6'          4.0620    -0.5820     3.3840 ha         1 IIN       0.154500
     33 H33          2.1430     2.0050     1.2870 hn         1 IIN       0.455800
@<TRIPOS>BOND
     1     1     2 2
     2     1     3 1
     3     1    10 1
     4     3     4 1
     5     3    11 1
     6     4     5 1
     7     4    12 1
     8     4    13 1
     9     5     6 ar
    10     5    10 ar
    11     6     7 ar
    12     6    19 1
    13     7     8 ar
    14     7    20 1
    15     8     9 ar
    16     8    21 1
    17     9    10 ar
    18     9    22 1
    19    11    23 1
    20    11    24 1
    21    11    25 1
    22    12    26 1
    23    12    27 1
    24    13    14 ar
    25    13    18 ar
    26    14    15 ar
    27    14    28 1
    28    15    16 ar
    29    15    29 1
    30    16    17 ar
    31    16    30 1
    32    17    18 ar
    33    17    31 1
    34    18    32 1
    35    33    12 1
@<TRIPOS>SUBSTRUCTURE
     1 IIN         1 TEMP              0 ****  ****    0 ROOT
