@<TRIPOS>MOLECULE
molecule
   88    91     1     0     0
SMALL
bcc


@<TRIPOS>ATOM
      1 C            0.0000     0.0000     0.0000 cc         1 IIP       0.427200
      2 C1           0.4640    -0.0120     6.4450 cc         1 IIP      -0.156000
      3 C2           1.3620     0.0000     0.0000 cd         1 IIP      -0.248600
      4 C3           3.1400     0.0000     1.7900 c3         1 IIP       0.036600
      5 C4           0.6280    -0.0010     2.0670 cd         1 IIP       0.346000
      6 C5           0.5850    -0.0030     3.5400 c          1 IIP       0.621600
      7 C6          -0.6430    -0.0050     5.5840 cc         1 IIP      -0.024400
      8 C8          -1.7640    -0.0070     6.3540 cd         1 IIP      -0.171300
      9 C10         -0.0230    -0.0070     7.7350 cd         1 IIP      -0.194900
     10 C11          0.7780    -0.0080     8.9620 c          1 IIP       0.718700
     11 C12          2.8970    -0.0230    10.0570 cc         1 IIP      -0.023400
     12 C13          2.4130    -0.2430    11.3550 cc         1 IIP      -0.162000
     13 C14          4.2520     0.0590    10.1290 cd         1 IIP      -0.171300
     14 C16          3.5070    -0.2960    12.1940 cd         1 IIP      -0.196900
     15 C18         -0.4390    -1.7040    19.7370 c3         1 IIP       0.126000
     16 C19         -1.8690    -2.0230    20.1760 c3         1 IIP      -0.131400
     17 C20         -1.9220    -2.1330    21.7020 c3         1 IIP       0.100800
     18 C21         -3.6760    -3.7670    21.6240 c3         1 IIP       0.087600
     19 C22         -3.3720    -2.4270    23.5900 c3         1 IIP       0.087600
     20 C23          3.4770    -0.5120    13.6440 c          1 IIP       0.713700
     21 C25         -1.1350     0.0030    -3.5610 cc         1 IIP       0.335000
     22 C26         -2.8900     0.0030    -4.8160 cd         1 IIP       0.307200
     23 C27         -1.8160     0.0100    -5.6440 cc         1 IIP      -0.251600
     24 C29          2.2610    -0.8940    15.7200 c3         1 IIP       0.133000
     25 C30          0.8290    -1.2130    16.1580 c3         1 IIP      -0.174400
     26 C31          0.7780    -1.3220    17.6610 c          1 IIP       0.666100
     27 O1           1.6200    -0.0030     4.1790 o          1 IIP      -0.625100
     28 O2           0.2310    -0.1020    10.0460 o          1 IIP      -0.642100
     29 O3           4.5050    -0.4410    14.2910 o          1 IIP      -0.622100
     30 O5           1.7860    -1.1600    18.3160 o          1 IIP      -0.580100
     31 N            1.7590     0.0000     1.3020 na         1 IIP      -0.136900
     32 N1          -0.6020    -0.0030     4.1790 ns         1 IIP      -0.425100
     33 N2          -0.4170     0.0030     1.2660 nc         1 IIP      -0.705000
     34 N3          -1.3970    -0.0070     7.6610 na         1 IIP      -0.004100
     35 N4           2.1210     0.0950     8.8920 ns         1 IIP      -0.435100
     36 N5           4.6330    -0.1050    11.4240 na         1 IIP      -0.001100
     37 N6          -0.3880    -1.5980    18.2770 ns         1 IIP      -0.601900
     38 N7          -3.2950    -2.4390    22.1230 nx         1 IIP      -0.656400
     39 N8          -0.8220     0.0010    -1.1360 ns         1 IIP      -0.499400
     40 N9          -0.7070     0.0140    -4.8580 na         1 IIP      -0.136900
     41 N10         -2.4510     0.0020    -3.5600 nd         1 IIP      -0.674000
     42 N11          2.3100    -0.7880    14.2590 ns         1 IIP      -0.588900
     43 H1           1.5070    -0.0120     6.1510 ha         1 IIP       0.188000
     44 H2           2.0070    -0.0020    -0.8710 h4         1 IIP       0.226000
     45 H31          3.3100     0.8840     2.3930 h1         1 IIP       0.063700
     46 H32          3.3110    -0.8850     2.3910 h1         1 IIP       0.063700
     47 H33          3.8210     0.0010     0.9480 h1         1 IIP       0.063700
     48 H8          -2.7820    -0.0030     5.9850 h4         1 IIP       0.172000
     49 H91         -3.3350     0.0240     8.4490 h1         1 IIP       0.058033
     50 H92         -2.1630    -0.9120     9.3860 h1         1 IIP       0.058033
     51 H93         -2.1180     0.8560     9.4260 h1         1 IIP       0.058033
     52 H13          1.3750    -0.3550    11.6440 ha         1 IIP       0.183000
     53 H14          4.9190     0.2250     9.2920 h4         1 IIP       0.172000
     54 H151         6.2340    -1.0200    12.4130 h1         1 IIP       0.061700
     55 H152         6.1280     0.7340    12.6230 h1         1 IIP       0.061700
     56 H153         6.6910     0.0590    11.0880 h1         1 IIP       0.061700
     57 H181         0.2240    -2.4960    20.0640 h1         1 IIP       0.066200
     58 H182        -0.1260    -0.7660    20.1780 h1         1 IIP       0.066200
     59 H191        -2.5320    -1.2320    19.8480 hc         1 IIP       0.066200
     60 H192        -2.1810    -2.9620    19.7360 hc         1 IIP       0.066200
     61 H201        -1.2580    -2.9250    22.0300 hx         1 IIP       0.110200
     62 H202        -1.6090    -1.1950    22.1430 hx         1 IIP       0.110200
     63 H211        -4.4660    -4.1730    22.2450 hx         1 IIP       0.103367
     64 H212        -2.8170    -4.4260    21.6570 hx         1 IIP       0.103367
     65 H213        -4.0270    -3.6820    20.6030 hx         1 IIP       0.103367
     66 H221        -4.3900    -2.6300    23.9000 hx         1 IIP       0.103367
     67 H222        -3.0680    -1.4550    23.9600 hx         1 IIP       0.103367
     68 H223        -2.7130    -3.1880    23.9930 hx         1 IIP       0.103367
     69 H26         -3.9280     0.0010    -5.1250 h4         1 IIP       0.047100
     70 H27         -1.8380     0.0140    -6.7270 h4         1 IIP       0.181000
     71 H281         0.7080     0.0260    -6.3990 h1         1 IIP       0.064033
     72 H282         1.1900    -0.8650    -4.9490 h1         1 IIP       0.064033
     73 H283         1.1850     0.9040    -4.9390 h1         1 IIP       0.064033
     74 H291         2.5730     0.0450    16.1610 h1         1 IIP       0.071200
     75 H292         2.9240    -1.6850    16.0480 h1         1 IIP       0.071200
     76 H301         0.1660    -0.4210    15.8310 hc         1 IIP       0.069200
     77 H302         0.5170    -2.1510    15.7170 hc         1 IIP       0.069200
     78 HN1         -1.4540    -0.0030     3.6540 hn         1 IIP       0.346500
     79 HN4          2.5630     0.2810     8.0130 hn         1 IIP       0.335500
     80 HN6         -1.2200    -1.7320    17.7370 hn         1 IIP       0.316500
     81 HN7         -3.9190    -1.7510    21.7510 hn         1 IIP       0.452800
     82 HN8         -1.8180     0.0020    -1.0340 hn         1 IIP       0.358500
     83 H11          1.4890    -0.9670    13.7170 hn         1 IIP       0.320500
     84 C9          -2.3130    -0.0100     8.8050 c3         1 IIP       0.040600
     85 C24         -0.2710     0.0030    -2.3670 c          1 IIP       0.622600
     86 C15          6.0110    -0.0810    11.9190 c3         1 IIP       0.037600
     87 C28          0.6850     0.0200    -5.3160 c3         1 IIP       0.032600
     88 O4           0.9390     0.0040    -2.4910 o          1 IIP      -0.630100
@<TRIPOS>BOND
     1     1     3 2
     2     1    33 1
     3     1    39 1
     4     2     7 1
     5     2     9 2
     6     2    43 1
     7     3    31 1
     8     3    44 1
     9     4    31 1
    10     4    45 1
    11     4    46 1
    12     4    47 1
    13     5     6 1
    14     5    31 1
    15     5    33 2
    16     6    27 2
    17     6    32 1
    18     7     8 2
    19     7    32 1
    20     8    34 1
    21     8    48 1
    22    84    34 1
    23    84    49 1
    24    84    50 1
    25    84    51 1
    26     9    10 1
    27     9    34 1
    28    10    28 2
    29    10    35 1
    30    11    12 1
    31    11    13 2
    32    11    35 1
    33    12    14 2
    34    12    52 1
    35    13    36 1
    36    13    53 1
    37    86    36 1
    38    86    54 1
    39    86    55 1
    40    86    56 1
    41    14    20 1
    42    14    36 1
    43    15    16 1
    44    15    37 1
    45    15    57 1
    46    15    58 1
    47    16    17 1
    48    16    59 1
    49    16    60 1
    50    17    38 1
    51    17    61 1
    52    17    62 1
    53    18    38 1
    54    18    63 1
    55    18    64 1
    56    18    65 1
    57    19    38 1
    58    19    66 1
    59    19    67 1
    60    19    68 1
    61    20    29 2
    62    20    42 1
    63    85    21 1
    64    85    88 2
    65    85    39 1
    66    21    40 1
    67    21    41 2
    68    22    23 2
    69    22    41 1
    70    22    69 1
    71    23    40 1
    72    23    70 1
    73    87    40 1
    74    87    71 1
    75    87    72 1
    76    87    73 1
    77    24    25 1
    78    24    42 1
    79    24    74 1
    80    24    75 1
    81    25    26 1
    82    25    76 1
    83    25    77 1
    84    26    30 2
    85    26    37 1
    86    32    78 1
    87    35    79 1
    88    37    80 1
    89    38    81 1
    90    39    82 1
    91    42    83 1
@<TRIPOS>SUBSTRUCTURE
     1 IIP         1 TEMP              0 ****  ****    0 ROOT
