@<TRIPOS>MOLECULE
molecule
   29    29     1     0     0
SMALL
bcc


@<TRIPOS>ATOM
      1 CAA          0.0000     0.0000     0.0000 c3         1 IJ1      -0.044800
      2 CAM          1.5070     0.0000     0.0000 ca         1 IJ1      -0.089300
      3 CAH          2.1980     0.0000     1.1980 ca         1 IJ1      -0.126000
      4 CAF          2.1980    -0.0080    -1.1970 ca         1 IJ1      -0.137000
      5 CAE          3.5810    -0.0080    -1.1960 ca         1 IJ1      -0.132000
      6 CAG          4.2710    -0.0010     0.0010 ca         1 IJ1      -0.110000
      7 CAN          3.5800    -0.0000     1.1990 ca         1 IJ1      -0.066300
      8 CAK          4.3320     0.0010     2.5040 c3         1 IJ1       0.197100
      9 NAL          4.5770    -1.3830     2.9300 n7         1 IJ1      -0.812200
     10 CAI          5.3110    -1.4210     4.2020 c3         1 IJ1       0.179800
     11 CAJ          5.5460    -2.8760     4.6130 c3         1 IJ1      -0.256600
     12 SAO          6.4520    -2.9220     6.1830 s6         1 IJ1       1.254800
     13 OAD          5.6360    -2.4440     7.2440 o          1 IJ1      -0.707533
     14 OAC          6.6210    -4.4050     6.4800 o          1 IJ1      -0.707533
     15 OAB          7.7790    -2.4460     6.0080 o          1 IJ1      -0.707533
     16 H1          -0.3610     0.8160     0.6140 hc         1 IJ1       0.038033
     17 H2          -0.3610     0.1240    -1.0140 hc         1 IJ1       0.038033
     18 H3          -0.3610    -0.9400     0.4000 hc         1 IJ1       0.038033
     19 H4           1.6560     0.0010     2.1360 ha         1 IJ1       0.130000
     20 H5           1.6570    -0.0130    -2.1350 ha         1 IJ1       0.119000
     21 H6           4.1230    -0.0110    -2.1340 ha         1 IJ1       0.122000
     22 H7           5.3550    -0.0010     0.0010 ha         1 IJ1       0.137000
     23 H8           5.2780     0.5120     2.3740 h1         1 IJ1       0.033700
     24 H9           3.7460     0.5130     3.2580 h1         1 IJ1       0.033700
     25 H10          3.7030    -1.8600     3.0350 hn         1 IJ1       0.350800
     26 H12          4.7320    -0.9180     4.9670 h1         1 IJ1       0.033200
     27 H13          6.2640    -0.9200     4.0830 h1         1 IJ1       0.033200
     28 H14          4.5920    -3.3760     4.7310 h1         1 IJ1       0.079200
     29 H15          6.1250    -3.3780     3.8470 h1         1 IJ1       0.079200
@<TRIPOS>BOND
     1     1     2 1
     2     4     2 ar
     3     4     5 ar
     4     2     3 ar
     5     5     6 ar
     6     3     7 ar
     7     6     7 ar
     8     7     8 1
     9     8     9 1
    10     9    10 1
    11    10    11 1
    12    11    12 1
    13    15    12 1
    14    12    13 1
    15    12    14 1
    16     1    16 1
    17     1    17 1
    18     1    18 1
    19     3    19 1
    20     4    20 1
    21     5    21 1
    22     6    22 1
    23     8    23 1
    24     8    24 1
    25     9    25 1
    26    10    26 1
    27    10    27 1
    28    11    28 1
    29    11    29 1
@<TRIPOS>SUBSTRUCTURE
     1 IJ1         1 TEMP              0 ****  ****    0 ROOT
