@<TRIPOS>MOLECULE
IJ1
   29    29     1     0     0
SMALL
bcc


@<TRIPOS>ATOM
      1 CAA          0.0000     0.0000     0.0000 c3         1 IJ1       0.067200
      2 CAM          1.5070     0.0000     0.0000 ca         1 IJ1      -0.097300
      3 CAH          2.1980     0.0000     1.1980 ca         1 IJ1      -0.099000
      4 CAF          2.1980    -0.0080    -1.1970 ca         1 IJ1      -0.114000
      5 CAE          3.5810    -0.0080    -1.1960 ca         1 IJ1      -0.106000
      6 CAG          4.2710    -0.0010     0.0010 ca         1 IJ1      -0.084000
      7 CAN          3.5800    -0.0000     1.1990 ca         1 IJ1      -0.073300
      8 CAK          4.3320     0.0010     2.5040 c3         1 IJ1       0.199100
      9 NAL          4.5770    -1.3830     2.9300 n7         1 IJ1      -0.595200
     10 CAI          5.3110    -1.4210     4.2020 c3         1 IJ1       0.173800
     11 CAJ          5.5460    -2.8760     4.6130 c3         1 IJ1      -0.055600
     12 SAO          6.4520    -2.9220     6.1830 s6         1 IJ1       0.957800
     13 OAD          5.6360    -2.4440     7.2440 o          1 IJ1      -0.660533
     14 OAC          6.6210    -4.4050     6.4800 o          1 IJ1      -0.660533
     15 OAB          7.7790    -2.4460     6.0080 o          1 IJ1      -0.660533
     16 H1          -0.3610     0.8160     0.6140 hc         1 IJ1       0.002700
     17 H2          -0.3610     0.1240    -1.0140 hc         1 IJ1       0.002700
     18 H3          -0.3610    -0.9400     0.4000 hc         1 IJ1       0.002700
     19 H4           1.6560     0.0010     2.1360 ha         1 IJ1       0.107000
     20 H5           1.6570    -0.0130    -2.1350 ha         1 IJ1       0.097000
     21 H6           4.1230    -0.0110    -2.1340 ha         1 IJ1       0.096000
     22 H7           5.3550    -0.0010     0.0010 ha         1 IJ1       0.111000
     23 H8           5.2780     0.5120     2.3740 h1         1 IJ1       0.006200
     24 H9           3.7460     0.5130     3.2580 h1         1 IJ1       0.006200
     25 H10          3.7030    -1.8600     3.0350 hn         1 IJ1       0.251800
     26 H12          4.7320    -0.9180     4.9670 h1         1 IJ1       0.010200
     27 H13          6.2640    -0.9200     4.0830 h1         1 IJ1       0.010200
     28 H14          4.5920    -3.3760     4.7310 h1         1 IJ1       0.052200
     29 H15          6.1250    -3.3780     3.8470 h1         1 IJ1       0.052200
@<TRIPOS>BOND
     1     1     2 1   
     2     1    16 1   
     3     1    17 1   
     4     1    18 1   
     5     2     3 ar  
     6     2     4 ar  
     7     3     7 ar  
     8     3    19 1   
     9     4     5 ar  
    10     4    20 1   
    11     5     6 ar  
    12     5    21 1   
    13     6     7 ar  
    14     6    22 1   
    15     7     8 1   
    16     8     9 1   
    17     8    23 1   
    18     8    24 1   
    19     9    10 1   
    20     9    25 1   
    21    10    11 1   
    22    10    26 1   
    23    10    27 1   
    24    11    12 1   
    25    11    28 1   
    26    11    29 1   
    27    12    13 1   
    28    12    14 1   
    29    12    15 1   
@<TRIPOS>SUBSTRUCTURE
     1 IJ1         1 TEMP              0 ****  ****    0 ROOT
