@<TRIPOS>MOLECULE
IJ2
   24    24     1     0     0
SMALL
bcc


@<TRIPOS>ATOM
      1 CAF         0.0900    0.4180   -0.1350 cc        1 IJ2     -0.174300
      2 CAD         1.5190    0.2750    0.0260 cc        1 IJ2     -0.267300
      3 CAE         1.7270   -0.2650    1.2810 cd        1 IJ2      0.287600
      4 OAK         0.5110   -0.4680    1.9280 os        1 IJ2     -0.374800
      5 CAL        -0.4870   -0.0390    1.0340 cd        1 IJ2      0.136000
      6 CAI        -1.8710   -0.1070    1.5330 c3        1 IJ2      0.093500
      7 NAJ        -2.2630   -1.4900    1.9220 n4        1 IJ2     -0.771000
      8 CAG        -3.6890   -1.5580    2.4150 c3        1 IJ2      0.164800
      9 CAH        -4.0930   -2.9400    2.7640 c3        1 IJ2     -0.304600
     10 SAM        -5.9090   -2.8570    3.2860 s6        1 IJ2      1.444800
     11 OAC        -6.2060   -4.1870    3.5520 o         1 IJ2     -0.722867
     12 OAB        -5.8170   -1.9860    4.3770 o         1 IJ2     -0.722867
     13 OAA        -6.4680   -2.2920    2.1330 o         1 IJ2     -0.722867
     14 H1         -0.4140    0.8150   -1.0140 ha        1 IJ2      0.177000
     15 H2          2.2700    0.5480   -0.7120 ha        1 IJ2      0.180000
     16 H3          2.5980   -0.5610    1.8620 h4        1 IJ2      0.070100
     17 H4         -1.9890    0.5510    2.4460 hx        1 IJ2      0.116200
     18 H5         -2.5800    0.2550    0.7330 hx        1 IJ2      0.116200
     19 H6         -2.1620   -2.1200    1.1210 hn        1 IJ2      0.441800
     20 H7         -3.7670   -0.8840    3.3190 hx        1 IJ2      0.111700
     21 H8         -4.0540   -3.6480    1.9100 h1        1 IJ2      0.083700
     22 H9         -4.3490   -1.1530    1.5910 hx        1 IJ2      0.111700
     23 H10        -3.5390   -3.3620    3.6280 h1        1 IJ2      0.083700
     24 HAJ2       -1.6370   -1.8270    2.6600 hn        1 IJ2      0.441800
@<TRIPOS>BOND
     1    1    2 1
     2    1    5 2
     3    1   14 1
     4    2    3 2
     5    2   15 1
     6    3    4 1
     7    3   16 1
     8    4    5 1
     9    5    6 1
    10    6    7 1
    11    6   17 1
    12    6   18 1
    13    7    8 1
    14    7   19 1
    15    7   24 1
    16    8    9 1
    17    8   20 1
    18    8   22 1
    19    9   10 1
    20    9   21 1
    21    9   23 1
    22   10   11 1
    23   10   12 1
    24   10   13 1
@<TRIPOS>SUBSTRUCTURE
     1 IJ2         1 TEMP              0 ****  ****    0 ROOT
