@<TRIPOS>MOLECULE
IJ4
   29    29     1     0     0
SMALL
bcc


@<TRIPOS>ATOM
      1 OAD          0.0000     0.0000     0.0000 o          1 IJ4      -0.659533
      2 SAP          1.5220     0.0000     0.0000 s6         1 IJ4       0.957800
      3 OAB          1.8710     0.0000     1.3780 o          1 IJ4      -0.659533
      4 OAC          1.8720    -1.0870    -0.8440 o          1 IJ4      -0.659533
      5 CAJ          1.9760     1.5770    -0.7720 c3         1 IJ4      -0.056600
      6 CAI          3.5000     1.6970    -0.8310 c3         1 IJ4       0.174800
      7 NAL          3.8670     2.9740    -1.4550 n7         1 IJ4      -0.595200
      8 CAK          5.3270     3.1250    -1.5280 c3         1 IJ4       0.199100
      9 CAO          5.6650     4.4430    -2.1740 ca         1 IJ4      -0.084300
     10 CAH          5.8190     5.5740    -1.3950 ca         1 IJ4      -0.076000
     11 CAM          6.1290     6.7850    -1.9860 ca         1 IJ4      -0.123300
     12 CAA          6.2970     8.0170    -1.1350 c3         1 IJ4       0.070200
     13 CAN          6.2840     6.8640    -3.3590 ca         1 IJ4       0.086900
     14 FAE          6.5870     8.0470    -3.9380 f          1 IJ4      -0.136900
     15 CAF          6.1290     5.7310    -4.1390 ca         1 IJ4      -0.134000
     16 CAG          5.8250     4.5200    -3.5450 ca         1 IJ4      -0.060000
     17 H1           1.5720     1.6170    -1.7760 h1         1 IJ4       0.052200
     18 H2           3.9040     1.6570     0.1740 h1         1 IJ4       0.010700
     19 H3           3.4800     3.7290    -0.9230 hn         1 IJ4       0.251800
     20 H4           5.7440     2.3170    -2.1170 h1         1 IJ4       0.007700
     21 H5           5.7440     3.0950    -0.5290 h1         1 IJ4       0.007700
     22 H6           5.7120     5.5090    -0.3190 ha         1 IJ4       0.113000
     23 H7           5.5160     8.7290    -1.3730 hc         1 IJ4       0.007367
     24 H8           6.2320     7.7460    -0.0890 hc         1 IJ4       0.007367
     25 H9           7.2640     8.4630    -1.3330 hc         1 IJ4       0.007367
     26 H10          6.2520     5.7910    -5.2140 ha         1 IJ4       0.112000
     27 H11          5.7040     3.6330    -4.1550 ha         1 IJ4       0.115000
     28 H13          1.5710     2.3950    -0.1870 h1         1 IJ4       0.052200
     29 H14          3.9040     0.8800    -1.4160 h1         1 IJ4       0.010700
@<TRIPOS>BOND
     1     1     2 1   
     2     2     3 1   
     3     2     4 1   
     4     2     5 1   
     5     5     6 1   
     6     5    17 1   
     7     5    28 1   
     8     6     7 1   
     9     6    18 1   
    10     6    29 1   
    11     7     8 1   
    12     7    19 1   
    13     8     9 1   
    14     8    20 1   
    15     8    21 1   
    16     9    10 ar  
    17     9    16 ar  
    18    10    11 ar  
    19    10    22 1   
    20    11    12 1   
    21    11    13 ar  
    22    12    23 1   
    23    12    24 1   
    24    12    25 1   
    25    13    14 1   
    26    13    15 ar  
    27    15    16 ar  
    28    15    26 1   
    29    16    27 1   
@<TRIPOS>SUBSTRUCTURE
     1 IJ4         1 TEMP              0 ****  ****    0 ROOT
