@<TRIPOS>MOLECULE
molecule
   29    29     1     0     0
SMALL
bcc


@<TRIPOS>ATOM
      1 OAD          0.0000     0.0000     0.0000 o          1 IJ4      -0.706867
      2 SAP          1.5220     0.0000     0.0000 s6         1 IJ4       1.254800
      3 OAB          1.8710     0.0000     1.3780 o          1 IJ4      -0.706867
      4 OAC          1.8720    -1.0870    -0.8440 o          1 IJ4      -0.706867
      5 CAJ          1.9760     1.5770    -0.7720 c3         1 IJ4      -0.256600
      6 CAI          3.5000     1.6970    -0.8310 c3         1 IJ4       0.179800
      7 NAL          3.8670     2.9740    -1.4550 n7         1 IJ4      -0.812200
      8 CAK          5.3270     3.1250    -1.5280 c3         1 IJ4       0.198100
      9 CAO          5.6650     4.4430    -2.1740 ca         1 IJ4      -0.079300
     10 CAH          5.8190     5.5740    -1.3950 ca         1 IJ4      -0.103000
     11 CAM          6.1290     6.7850    -1.9860 ca         1 IJ4      -0.124300
     12 CAA          6.2970     8.0170    -1.1350 c3         1 IJ4      -0.041800
     13 CAN          6.2840     6.8640    -3.3590 ca         1 IJ4       0.116900
     14 FAE          6.5870     8.0470    -3.9380 f          1 IJ4      -0.152900
     15 CAF          6.1290     5.7310    -4.1390 ca         1 IJ4      -0.168000
     16 CAG          5.8250     4.5200    -3.5450 ca         1 IJ4      -0.087000
     17 H1           1.5720     1.6170    -1.7760 h1         1 IJ4       0.079200
     18 H2           3.9040     1.6570     0.1740 h1         1 IJ4       0.033700
     19 H3           3.4800     3.7290    -0.9230 hn         1 IJ4       0.351800
     20 H4           5.7440     2.3170    -2.1170 h1         1 IJ4       0.035200
     21 H5           5.7440     3.0950    -0.5290 h1         1 IJ4       0.035200
     22 H6           5.7120     5.5090    -0.3190 ha         1 IJ4       0.137000
     23 H7           5.5160     8.7290    -1.3730 hc         1 IJ4       0.043033
     24 H8           6.2320     7.7460    -0.0890 hc         1 IJ4       0.043033
     25 H9           7.2640     8.4630    -1.3330 hc         1 IJ4       0.043033
     26 H10          6.2520     5.7910    -5.2140 ha         1 IJ4       0.138000
     27 H11          5.7040     3.6330    -4.1550 ha         1 IJ4       0.145000
     28 H13          1.5710     2.3950    -0.1870 h1         1 IJ4       0.079200
     29 H14          3.9040     0.8800    -1.4160 h1         1 IJ4       0.033700
@<TRIPOS>BOND
     1    14    13 1
     2    12    11 1
     3    13    11 ar
     4    13    15 ar
     5    11    10 ar
     6    15    16 ar
     7    10     9 ar
     8    16     9 ar
     9     9     8 1
    10     8     7 1
    11     7     6 1
    12     6     5 1
    13     5     2 1
    14     4     2 1
    15     2     3 1
    16     2     1 1
    17     5    17 1
    18     6    18 1
    19     7    19 1
    20     8    20 1
    21     8    21 1
    22    10    22 1
    23    12    23 1
    24    12    24 1
    25    12    25 1
    26    15    26 1
    27    16    27 1
    28     5    28 1
    29     6    29 1
@<TRIPOS>SUBSTRUCTURE
     1 IJ4         1 TEMP              0 ****  ****    0 ROOT
