@<TRIPOS>MOLECULE
IJ6
   33    33     1     0     0
SMALL
bcc


@<TRIPOS>ATOM
      1 CAH         0.1330   -0.0130   -0.0410 c3        1 IJ6     -0.077900
      2 CAE         1.6400   -0.0410    0.1120 c3        1 IJ6     -0.077400
      3 CAD         2.0510    0.0290    1.5670 c3        1 IJ6     -0.081400
      4 CAF         1.4520    1.2420    2.2470 c3        1 IJ6     -0.077400
      5 CAI        -0.0560    1.2670    2.1020 c3        1 IJ6     -0.077900
      6 CAM        -0.4630    1.2130    0.6340 c3        1 IJ6     -0.089700
      7 CAK        -1.9920    1.2060    0.5650 c3        1 IJ6      0.096800
      8 NAL        -2.5250    1.3590   -0.8110 n4        1 IJ6     -0.768000
      9 CAG        -4.0350    1.3890   -0.8420 c3        1 IJ6      0.164800
     10 CAJ        -4.5610    1.5300   -2.2210 c3        1 IJ6     -0.306600
     11 SAN        -6.4450    1.5460   -2.0840 s6        1 IJ6      1.444800
     12 OAC        -6.8410    1.6770   -3.4090 o         1 IJ6     -0.723533
     13 OAB        -6.6240    2.6550   -1.2470 o         1 IJ6     -0.723533
     14 OAA        -6.6600    0.3080   -1.4680 o         1 IJ6     -0.723533
     15 H1         -0.3060   -0.9410    0.4130 hc        1 IJ6      0.046700
     16 H2         -0.1190   -0.0170   -1.1340 hc        1 IJ6      0.046700
     17 H3          2.0400   -0.9820   -0.3480 hc        1 IJ6      0.051200
     18 H4          2.0880    0.8240   -0.4460 hc        1 IJ6      0.051200
     19 H5          3.1690    0.0720    1.6390 hc        1 IJ6      0.051200
     20 H6          1.7160   -0.9020    2.0970 hc        1 IJ6      0.051200
     21 H7          1.8870    2.1750    1.8030 hc        1 IJ6      0.051200
     22 H8          1.7160    1.2320    3.3370 hc        1 IJ6      0.051200
     23 H9         -0.5000    0.3910    2.6440 hc        1 IJ6      0.046700
     24 H10        -0.4630    2.2000    2.5710 hc        1 IJ6      0.046700
     25 H11        -0.0660    2.1370    0.1250 hc        1 IJ6      0.062700
     26 H12        -2.3890    0.2360    0.9830 hx        1 IJ6      0.101200
     27 H13        -2.4030    2.0520    1.1870 hx        1 IJ6      0.101200
     28 H14        -2.1720    2.2250   -1.2270 hn        1 IJ6      0.434800
     29 H16        -4.3690    2.2600   -0.2030 hx        1 IJ6      0.112200
     30 H17        -4.4020    0.4270   -0.3770 hx        1 IJ6      0.112200
     31 H18        -4.3080    0.6770   -2.8850 h1        1 IJ6      0.082700
     32 H19        -4.2790    2.4840   -2.7120 h1        1 IJ6      0.082700
     33 HAL2       -2.2020    0.5820   -1.3970 hn        1 IJ6      0.434800
@<TRIPOS>BOND
     1    1    2 1
     2    1    6 1
     3    1   15 1
     4    1   16 1
     5    2    3 1
     6    2   17 1
     7    2   18 1
     8    3    4 1
     9    3   19 1
    10    3   20 1
    11    4    5 1
    12    4   21 1
    13    4   22 1
    14    5    6 1
    15    5   23 1
    16    5   24 1
    17    6    7 1
    18    6   25 1
    19    7    8 1
    20    7   26 1
    21    7   27 1
    22    8    9 1
    23    8   28 1
    24    8   33 1
    25    9   10 1
    26    9   29 1
    27    9   30 1
    28   10   11 1
    29   10   31 1
    30   10   32 1
    31   11   12 1
    32   11   13 1
    33   11   14 1
@<TRIPOS>SUBSTRUCTURE
     1 IJ6         1 TEMP              0 ****  ****    0 ROOT
