@<TRIPOS>MOLECULE
IJZ
   17    17     1     0     0
SMALL
bcc


@<TRIPOS>ATOM
      1 O10          0.0000     0.0000     0.0000 o          1 IJZ      -0.803800
      2 C9           1.2430     0.0000     0.0000 c          1 IJZ       0.956800
      3 O11          1.9170     0.0000     1.0460 o          1 IJZ      -0.803800
      4 C5           1.9050     0.0380    -1.3360 cc         1 IJZ       0.018400
      5 C4           3.1430     0.8070    -1.5240 cd         1 IJZ      -0.683200
      6 N12          3.7320     1.4750    -0.4970 nz         1 IJZ       0.396600
      7 C3           3.6980     0.8180    -2.8970 c          1 IJZ       0.658700
      8 O8           4.7440     1.4560    -3.1260 o          1 IJZ      -0.691500
      9 N2           3.0590     0.1150    -3.8660 ns         1 IJZ      -0.084500
     10 C1           1.9090    -0.5770    -3.6190 c          1 IJZ       0.537500
     11 N6           1.3510    -0.6150    -2.3900 ns         1 IJZ       0.144900
     12 O7           1.3420    -1.2120    -4.5340 o          1 IJZ      -0.654500
     13 H112         4.4600     2.0610    -0.8550 hn         1 IJZ       0.190133
     14 H212         4.1200     0.8170     0.1500 hn         1 IJZ       0.190133
     15 HN2          3.4340     0.1170    -4.7940 hn         1 IJZ       0.213500
     16 HN6          0.5060    -1.1350    -2.2540 hn         1 IJZ       0.226500
     17 H123         3.0490     2.0390    -0.0310 hn         1 IJZ       0.190133
@<TRIPOS>BOND
     1     1     2 1   
     2     2     3 1   
     3     2     4 1   
     4     4     5 2   
     5     4    11 1   
     6     5     6 1   
     7     5     7 1   
     8     6    13 1   
     9     6    14 1   
    10     6    17 1   
    11     7     8 2   
    12     7     9 1   
    13     9    10 1   
    14     9    15 1   
    15    10    11 1   
    16    10    12 2   
    17    11    16 1   
@<TRIPOS>SUBSTRUCTURE
     1 IJZ         1 TEMP              0 ****  ****    0 ROOT
