@<TRIPOS>MOLECULE
molecule
   31    32     1     0     0
SMALL
bcc


@<TRIPOS>ATOM
      1 NAA          0.0000     0.0000     0.0000 nz         1 IK1      -0.665400
      2 NAB          4.4670    -0.0040    -4.7180 nz         1 IK1      -0.673400
      3 OAC          1.9550     0.0000     1.0520 o          1 IK1      -0.469100
      4 OAD          2.4340    -0.0030    -3.8230 o          1 IK1      -0.498100
      5 CAG          8.6950    -0.0050     1.7390 ca         1 IK1      -0.109000
      6 CAF          9.6030    -0.0070    -0.4830 ca         1 IK1      -0.109000
      7 CAI          7.4150    -0.0040     1.2220 ca         1 IK1      -0.096500
      8 CAH          8.3290    -0.0060    -1.0120 ca         1 IK1      -0.096500
      9 CAJ          5.5620    -0.0030    -2.0270 cc         1 IK1      -0.174000
     10 NAK          2.0210    -0.0010    -1.1680 ns         1 IK1      -0.404100
     11 SAL          4.3800    -0.0020     0.2320 ss         1 IK1       0.212200
     12 CAM          1.3480     0.0000     0.0000 c          1 IK1       0.590100
     13 CAO          9.7870    -0.0070     0.8890 ca         1 IK1      -0.070000
     14 CAP          7.2240    -0.0030    -0.1600 ca         1 IK1      -0.078000
     15 CAQ          5.8560    -0.0030    -0.7200 cd         1 IK1       0.066900
     16 CAR          4.1910    -0.0020    -2.2960 cc         1 IK1      -0.263600
     17 CAS          3.4060    -0.0020    -1.1670 cd         1 IK1       0.067500
     18 HAA1        -0.3340    -0.8270    -0.4550 hn         1 IK1       0.494800
     19 HAA2        -0.3340     0.8070    -0.4890 hn         1 IK1       0.494800
     20 HAB1         5.0450     0.8130    -4.6920 hn         1 IK1       0.489133
     21 HAB2         5.0430    -0.8210    -4.6730 hn         1 IK1       0.489133
     22 HAF         10.4620    -0.0090    -1.1430 ha         1 IK1       0.159500
     23 HAH          8.1880    -0.0060    -2.0860 ha         1 IK1       0.123500
     24 HAO         10.7900    -0.0080     1.2980 ha         1 IK1       0.164000
     25 HAG          8.8460    -0.0050     2.8110 ha         1 IK1       0.159500
     26 HAI          6.5610    -0.0020     1.8890 ha         1 IK1       0.123500
     27 HAJ          6.3170    -0.0030    -2.8040 ha         1 IK1       0.158000
     28 HAK          1.5210    -0.0350    -2.0340 hn         1 IK1       0.372500
     29 HAA3        -0.3340     0.0210     0.9430 hn         1 IK1       0.494800
     30 HAB3         3.9240    -0.0020    -5.5590 hn         1 IK1       0.489133
     31 CAN          3.6390    -0.0030    -3.6550 c          1 IK1       0.554700
@<TRIPOS>BOND
     1     1    12 1
     2     2    31 1
     3     3    12 2
     4     4    31 2
     5     6     8 ar
     6     6    13 ar
     7     5     7 ar
     8     5    13 ar
     9     8    14 ar
    10     7    14 ar
    11     9    15 2
    12     9    16 1
    13    10    12 1
    14    10    17 1
    15    11    15 1
    16    11    17 1
    17    31    16 1
    18    14    15 1
    19    16    17 2
    20     1    18 1
    21     1    19 1
    22     2    20 1
    23     2    21 1
    24     6    22 1
    25     8    23 1
    26    13    24 1
    27     5    25 1
    28     7    26 1
    29     9    27 1
    30    10    28 1
    31    29     1 1
    32    30     2 1
@<TRIPOS>SUBSTRUCTURE
     1 IK1         1 TEMP              0 ****  ****    0 ROOT
