@<TRIPOS>MOLECULE
IK1
   31    32     1     0     0
SMALL
bcc


@<TRIPOS>ATOM
      1 NAA          0.0000     0.0000     0.0000 nz         1 IK1       0.231600
      2 NAB          4.4670    -0.0040    -4.7180 nz         1 IK1       0.210600
      3 OAC          1.9550     0.0000     1.0520 o          1 IK1      -0.476100
      4 OAD          2.4340    -0.0030    -3.8230 o          1 IK1      -0.515100
      5 CAG          8.6950    -0.0050     1.7390 ca         1 IK1      -0.082000
      6 CAF          9.6030    -0.0070    -0.4830 ca         1 IK1      -0.082000
      7 CAI          7.4150    -0.0040     1.2220 ca         1 IK1      -0.062000
      8 CAH          8.3290    -0.0060    -1.0120 ca         1 IK1      -0.062000
      9 CAJ          5.5620    -0.0030    -2.0270 cc         1 IK1      -0.173000
     10 NAK          2.0210    -0.0010    -1.1680 ns         1 IK1       0.086900
     11 SAL          4.3800    -0.0020     0.2320 ss         1 IK1       0.011200
     12 CAM          1.3480     0.0000     0.0000 c          1 IK1       0.262100
     13 CAO          9.7870    -0.0070     0.8890 ca         1 IK1      -0.028000
     14 CAP          7.2240    -0.0030    -0.1600 ca         1 IK1      -0.094000
     15 CAQ          5.8560    -0.0030    -0.7200 cd         1 IK1       0.189900
     16 CAR          4.1910    -0.0020    -2.2960 cc         1 IK1      -0.268600
     17 CAS          3.4060    -0.0020    -1.1670 cd         1 IK1      -0.010500
     18 HAA1        -0.3340    -0.8270    -0.4550 hn         1 IK1       0.252800
     19 HAA2        -0.3340     0.8070    -0.4890 hn         1 IK1       0.252800
     20 HAB1         5.0450     0.8130    -4.6920 hn         1 IK1       0.256467
     21 HAB2         5.0430    -0.8210    -4.6730 hn         1 IK1       0.256467
     22 HAF         10.4620    -0.0090    -1.1430 ha         1 IK1       0.126000
     23 HAH          8.1880    -0.0060    -2.0860 ha         1 IK1       0.101000
     24 HAO         10.7900    -0.0080     1.2980 ha         1 IK1       0.126000
     25 HAG          8.8460    -0.0050     2.8110 ha         1 IK1       0.126000
     26 HAI          6.5610    -0.0020     1.8890 ha         1 IK1       0.101000
     27 HAJ          6.3170    -0.0030    -2.8040 ha         1 IK1       0.134000
     28 HAK          1.5210    -0.0350    -2.0340 hn         1 IK1       0.207500
     29 HAA3        -0.3340     0.0210     0.9430 hn         1 IK1       0.252800
     30 HAB3         3.9240    -0.0020    -5.5590 hn         1 IK1       0.256467
     31 CAN          3.6390    -0.0030    -3.6550 c          1 IK1       0.411700
@<TRIPOS>BOND
     1     1    12 1   
     2     1    18 1   
     3     1    19 1   
     4     1    29 1   
     5     2    20 1   
     6     2    21 1   
     7     2    30 1   
     8     2    31 1   
     9     3    12 2   
    10     4    31 2   
    11     5     7 ar  
    12     5    13 ar  
    13     5    25 1   
    14     6     8 ar  
    15     6    13 ar  
    16     6    22 1   
    17     7    14 ar  
    18     7    26 1   
    19     8    14 ar  
    20     8    23 1   
    21     9    15 2   
    22     9    16 1   
    23     9    27 1   
    24    10    12 1   
    25    10    17 1   
    26    10    28 1   
    27    11    15 1   
    28    11    17 1   
    29    13    24 1   
    30    14    15 1   
    31    16    17 2   
    32    16    31 1   
@<TRIPOS>SUBSTRUCTURE
     1 IK1         1 TEMP              0 ****  ****    0 ROOT
