@<TRIPOS>MOLECULE
molecule
   33    33     1     0     0
SMALL
bcc


@<TRIPOS>ATOM
      1 N1           0.0000     0.0000     0.0000 nb         1 IK2      -0.720000
      2 C2           1.3180     0.0000     0.0000 ca         1 IK2       0.335600
      3 C2A          2.0640    -0.0090    -1.3090 c3         1 IK2      -0.121400
      4 C3           2.0260     0.0000     1.1930 ca         1 IK2      -0.039200
      5 O3           3.3840    -0.0020     1.1880 oh         1 IK2      -0.527100
      6 C4           1.3240     0.0130     2.3940 ca         1 IK2      -0.092300
      7 C4A          2.0520     0.0210     3.7140 c3         1 IK2       0.194100
      8 N4A          2.2880    -1.3610     4.1510 n7         1 IK2      -0.555700
      9 OX           2.9950    -1.2840     5.4290 os         1 IK2      -0.219100
     10 C1'          3.2250    -2.6270     5.8560 c3         1 IK2       0.015400
     11 C2'          3.9540    -2.6170     7.1760 c          1 IK2       0.901600
     12 O1'          4.2450    -1.5680     7.6960 o          1 IK2      -0.857800
     13 O2'          4.2780    -3.7750     7.7720 o          1 IK2      -0.857800
     14 C5          -0.0610     0.0130     2.3490 ca         1 IK2      -0.117600
     15 C6          -0.6950     0.0070     1.1210 ca         1 IK2       0.422200
     16 C5A         -0.8660     0.0210     3.6210 c3         1 IK2       0.181700
     17 O4P         -2.2580     0.0200     3.3050 os         1 IK2      -0.553200
     18 P           -3.0540     0.0280     4.7040 p5         1 IK2       1.148900
     19 O1P         -2.6920     1.2410     5.4710 o          1 IK2      -0.907167
     20 O2P         -4.6390     0.0280     4.4210 o          1 IK2      -0.907167
     21 O3P         -2.6600    -1.2810     5.5530 o          1 IK2      -0.907167
     22 H2A1         1.3590    -0.1030    -2.1260 hc         1 IK2       0.026700
     23 H2A2         2.6190     0.9160    -1.4150 hc         1 IK2       0.026700
     24 H2A3         2.7520    -0.8460    -1.3270 hc         1 IK2       0.026700
     25 HO3          3.7000     0.8810     1.0840 ho         1 IK2       0.394000
     26 H4A1         1.4520     0.5360     4.4540 h1         1 IK2       0.053200
     27 H4A2         3.0010     0.5300     3.6000 h1         1 IK2       0.053200
     28 HNA          2.8630    -1.8300     3.4790 hn         1 IK2       0.316800
     29 H1'1         2.2770    -3.1370     5.9720 h1         1 IK2       0.023700
     30 H1'2         3.8250    -3.1430     5.1160 h1         1 IK2       0.023700
     31 H6          -1.7780     0.0070     1.0780 h4         1 IK2       0.069100
     32 H5A1        -0.6280    -0.8610     4.2050 h1         1 IK2       0.083700
     33 H5A2        -0.6260     0.9080     4.1950 h1         1 IK2       0.083700
@<TRIPOS>BOND
     1     1     2 ar
     2     1    15 ar
     3     2     3 1
     4     2     4 ar
     5     3    22 1
     6     3    23 1
     7     3    24 1
     8     4     5 1
     9     4     6 ar
    10     5    25 1
    11     6     7 1
    12     6    14 ar
    13     7     8 1
    14     7    26 1
    15     7    27 1
    16     8     9 1
    17     8    28 1
    18     9    10 1
    19    10    11 1
    20    10    29 1
    21    10    30 1
    22    11    12 1
    23    11    13 1
    24    14    15 ar
    25    14    16 1
    26    15    31 1
    27    16    17 1
    28    16    32 1
    29    16    33 1
    30    17    18 1
    31    18    19 1
    32    18    20 1
    33    18    21 1
@<TRIPOS>SUBSTRUCTURE
     1 IK2         1 TEMP              0 ****  ****    0 ROOT
