@<TRIPOS>MOLECULE
molecule
   51    53     1     0     0
SMALL
bcc


@<TRIPOS>ATOM
      1 N31         -1.2800     0.0140    -2.2260 n1         1 IK4      -0.389800
      2 C30         -0.7200    -0.0010    -1.2380 cg         1 IK4       0.253800
      3 C27          0.0000     0.0000     0.0000 ca         1 IK4      -0.031000
      4 C28          1.3960     0.0000     0.0000 ca         1 IK4      -0.096000
      5 C29          2.0820     0.0000     1.1970 ca         1 IK4      -0.109500
      6 C26         -0.6920     0.0070     1.2140 ca         1 IK4      -0.096000
      7 C25          0.0070     0.0080     2.4020 ca         1 IK4      -0.109500
      8 C24          1.3900     0.0010     2.3950 ca         1 IK4      -0.057300
      9 C23          2.1480     0.0010     3.6990 c3         1 IK4       0.193700
     10 C19          3.4880     0.4110     6.0040 ca         1 IK4      -0.291000
     11 C20          3.0640     1.5270     5.2740 ca         1 IK4       0.155100
     12 C21          3.3240     2.7930     5.7170 ca         1 IK4      -0.117000
     13 C18          4.1670     0.5580     7.1730 ca         1 IK4      -0.140000
     14 C16          4.4510     1.8470     7.6580 ca         1 IK4      -0.026000
     15 C15          4.0230     2.9780     6.9200 ca         1 IK4      -0.022000
     16 C14          4.3080     4.2660     7.4060 ca         1 IK4      -0.003000
     17 C17          5.1510     2.0340     8.8610 ca         1 IK4      -0.147000
     18 C12          5.4090     3.2950     9.3010 ca         1 IK4      -0.032000
     19 C13          4.9890     4.4080     8.5760 ca         1 IK4      -0.277500
     20 S11          5.3440     6.0240     9.1830 sy         1 IK4       1.411200
     21 O33          6.4710     5.8930    10.0380 o          1 IK4      -0.658300
     22 O32          5.3200     6.8900     8.0550 o          1 IK4      -0.658300
     23 N            4.0760     6.4760    10.1460 n7         1 IK4      -0.860100
     24 CA           3.8030     5.7490    11.3880 c3         1 IK4       0.127500
     25 C            4.4650     6.4590    12.5410 c          1 IK4       0.889600
     26 O            5.0990     7.4680    12.3470 o          1 IK4      -0.852300
     27 OXT          4.3500     5.9680    13.7860 o          1 IK4      -0.852300
     28 CB           2.2930     5.6890    11.6240 c3         1 IK4      -0.054400
     29 CG           1.6360     4.8620    10.5180 c3         1 IK4      -0.187400
     30 CD           0.1480     4.8040    10.7500 c          1 IK4       0.892600
     31 OE1         -0.3360     5.3670    11.7040 o          1 IK4      -0.871800
     32 OE2         -0.6390     4.1270     9.8990 o          1 IK4      -0.871800
     33 O22          2.3880     1.3490     4.1090 os         1 IK4      -0.333900
     34 H28          1.9380    -0.0780    -0.9350 ha         1 IK4       0.137000
     35 H26         -1.7730    -0.0630     1.2210 ha         1 IK4       0.137000
     36 H29          3.1660    -0.0020     1.1990 ha         1 IK4       0.148000
     37 H25         -0.5280     0.0130     3.3440 ha         1 IK4       0.148000
     38 H231         1.5640    -0.5080     4.4560 h1         1 IK4       0.042700
     39 H232         3.0930    -0.5110     3.5670 h1         1 IK4       0.042700
     40 H18          4.4800    -0.3340     7.7030 ha         1 IK4       0.116000
     41 H21          2.9890     3.6120     5.0910 ha         1 IK4       0.150000
     42 H17          5.4840     1.1780     9.4360 ha         1 IK4       0.123000
     43 H14          3.9880     5.1410     6.8530 ha         1 IK4       0.154000
     44 H12          5.9500     3.4360    10.2300 ha         1 IK4       0.162000
     45 H            3.5170     7.2680     9.8980 hn         1 IK4       0.453800
     46 HA           4.1960     4.7430    11.3110 h1         1 IK4       0.035700
     47 HB1C         1.8860     6.6930    11.6150 hc         1 IK4       0.063200
     48 HB2C         2.0960     5.2290    12.5850 hc         1 IK4       0.063200
     49 HG1C         2.0420     3.8580    10.5280 hc         1 IK4       0.018200
     50 HG2C         1.8340     5.3220     9.5570 hc         1 IK4       0.018200
     51 H19          3.9360    -0.5470     6.2350 ha         1 IK4       0.205000
@<TRIPOS>BOND
     1     1     2 3
     2     2     3 1
     3     3     4 ar
     4     3     6 ar
     5     4     5 ar
     6     5     8 ar
     7     6     7 ar
     8     7     8 ar
     9     8     9 1
    10     9    33 1
    11    10    11 ar
    12    10    13 ar
    13    11    12 ar
    14    11    33 1
    15    12    15 ar
    16    13    14 ar
    17    14    15 ar
    18    14    17 ar
    19    15    16 ar
    20    16    19 ar
    21    17    18 ar
    22    18    19 ar
    23    19    20 1
    24    20    21 2
    25    20    22 2
    26    20    23 1
    27    23    24 1
    28    24    25 1
    29    24    28 1
    30    25    26 1
    31    25    27 1
    32    28    29 1
    33    29    30 1
    34    30    31 1
    35    30    32 1
    36     4    34 1
    37     6    35 1
    38     5    36 1
    39     7    37 1
    40     9    38 1
    41     9    39 1
    42    10    51 1
    43    13    40 1
    44    12    41 1
    45    17    42 1
    46    16    43 1
    47    18    44 1
    48    23    45 1
    49    24    46 1
    50    28    47 1
    51    28    48 1
    52    29    49 1
    53    29    50 1
@<TRIPOS>SUBSTRUCTURE
     1 IK4         1 TEMP              0 ****  ****    0 ROOT
