@<TRIPOS>MOLECULE
IK8
   59    61     1     0     0
SMALL
bcc


@<TRIPOS>ATOM
      1 F           1.4540   -1.3820   -1.3860 f         1 IK8     -0.145667
      2 F1          2.9890   -0.8380    0.0590 f         1 IK8     -0.145667
      3 F2          3.5460   -1.3340   -1.9820 f         1 IK8     -0.145667
      4 OT1        -1.8230    7.7690   -1.7770 os        1 IK8     -0.018000
      5 O1          3.6500    4.9560   -1.8290 o         1 IK8     -0.259000
      6 N          -1.8160    8.5920   -2.8280 n2        1 IK8     -0.134000
      7 N2          1.6790    2.8290   -1.4790 n3        1 IK8     -0.034000
      8 N3          1.5660    1.6250   -0.9950 n2        1 IK8      0.189000
      9 N4          4.9810    3.5620   -3.1380 n         1 IK8     -0.278000
     10 C          -0.7770    6.8770   -1.8160 c2        1 IK8      0.098000
     11 C1         -0.0130    7.1110   -2.9850 c2        1 IK8     -0.284000
     12 C2         -0.7420    8.2600   -3.6180 c2        1 IK8      0.120000
     13 C3         -0.6880    5.9320   -0.6830 c3        1 IK8     -0.024000
     14 C4          0.1480    4.8050   -0.9600 c1        1 IK8     -0.040000
     15 C5          0.8520    3.8650   -1.1970 c1        1 IK8     -0.077000
     16 C6          1.1040    6.5450   -3.5470 c1        1 IK8     -0.127000
     17 C7          2.4660    0.8040   -1.6410 c2        1 IK8     -0.369000
     18 C8          3.2240    1.4600   -2.6610 c1        1 IK8      0.005000
     19 C9          2.6760    2.8770   -2.6290 c3        1 IK8     -0.141000
     20 C10         2.6100   -0.6580   -1.2470 c3        1 IK8      0.526000
     21 C13         3.7870    3.9100   -2.4670 c2        1 IK8      0.344000
     22 C14         6.0880    4.3410   -3.2970 c2        1 IK8      0.149000
     23 C15         7.3530    3.6680   -3.8720 c3        1 IK8      0.074000
     24 C16         8.4270    4.5750   -4.2950 c1        1 IK8     -0.271000
     25 C17         8.4380    5.8970   -3.8820 c2        1 IK8     -0.125000
     26 C18         7.3280    6.4470   -3.2010 c2        1 IK8      0.097000
     27 C19         6.1960    5.6820   -2.9170 c2        1 IK8     -0.284000
     28 N5          9.5500    6.7140   -4.1890 n3        1 IK8     -0.157000
     29 C21        10.1660    7.7010   -3.2680 c3        1 IK8     -0.192000
     30 C22        11.5210    8.0210   -3.9430 c1        1 IK8      0.023000
     31 N6         11.6040    7.2650   -5.0660 n2        1 IK8     -0.313000
     32 C25        10.4550    6.5160   -5.2000 c2        1 IK8      0.106000
     33 F3          7.0510    2.7150   -4.8320 f         1 IK8     -0.127000
     34 C11        10.2480    5.6070   -6.3910 c3        1 IK8     -0.040000
     35 N7         11.2720    4.5530   -6.4130 n3        1 IK8     -0.036000
     36 C20        10.7970    3.2180   -6.0730 c3        1 IK8     -0.178000
     37 C23        12.5160    4.8200   -6.6820 c2        1 IK8      0.065000
     38 HN11        0.4340    8.4300   -5.2380 hn        1 IK8      0.254000
     39 HN12       -0.8800    9.5450   -5.2060 hn        1 IK8      0.254000
     40 HN4         5.0100    2.6270   -3.5290 hn        1 IK8      0.300000
     41 H3         -0.2850    6.4950    0.2160 hc        1 IK8      0.164500
     42 H4         -1.7270    5.5750   -0.4070 hc        1 IK8      0.164500
     43 H6          1.6010    5.7180   -3.0170 ha        1 IK8      0.041000
     44 H8          2.1090    3.1080   -3.5820 h1        1 IK8      0.213000
     45 H16         7.8130    3.1270   -2.9660 h1        1 IK8      0.174000
     46 H18         5.3510    6.1870   -2.4110 ha        1 IK8      0.198000
     47 H19         7.3210    7.5110   -2.8950 ha        1 IK8      0.164000
     48 H21         9.5350    8.6260   -3.2040 h1        1 IK8      0.157500
     49 H22        10.3130    7.2620   -2.2480 h1        1 IK8      0.157500
     50 H111       10.3400    6.2290   -7.3330 h1        1 IK8      0.174500
     51 H112        9.2280    5.1160   -6.3620 h1        1 IK8      0.174500
     52 H201       10.3210    2.7610   -6.9820 h1        1 IK8      0.154667
     53 H202       11.6470    2.5760   -5.7240 h1        1 IK8      0.154667
     54 H203       10.0120    3.3140   -5.2540 h1        1 IK8      0.154667
     55 H231       11.8990    6.2690   -8.8890 ha        1 IK8      0.001500
     56 H232       12.8470    5.8600   -6.9160 h4        1 IK8      0.209500
     57 H233       13.2800    4.0130   -6.6770 h4        1 IK8      0.209500
     58 H71        11.8940    6.7560   -9.3610 ha        1 IK8      0.001500
     59 N1         -0.3310    8.8510   -4.7640 nh        1 IK8     -0.329000
@<TRIPOS>BOND
     1    1   20 1   
     2    2   20 1   
     3    3   20 1   
     4    4    6 1   
     5    4   10 1   
     6    5   21 1   
     7    6   12 1   
     8    7    8 1   
     9    7   15 1   
    10    7   19 1   
    11    8   17 1   
    12    9   21 1   
    13    9   22 1   
    14    9   40 1   
    15   10   11 1   
    16   10   13 1   
    17   11   12 1   
    18   11   16 1   
    19   12   59 1   
    20   13   14 1   
    21   13   41 1   
    22   13   42 1   
    23   14   15 1   
    24   16   43 1   
    25   17   18 1   
    26   17   20 1   
    27   18   19 1   
    28   19   21 1   
    29   19   44 1   
    30   22   23 1   
    31   22   27 1   
    32   23   24 1   
    33   23   33 1   
    34   23   45 1   
    35   24   25 1   
    36   25   26 1   
    37   25   28 1   
    38   26   27 1   
    39   26   47 1   
    40   27   46 1   
    41   28   29 1   
    42   28   32 1   
    43   29   30 1   
    44   29   48 1   
    45   29   49 1   
    46   30   31 1   
    47   31   32 1   
    48   32   34 1   
    49   34   35 1   
    50   34   50 1   
    51   34   51 1   
    52   35   36 1   
    53   35   37 1   
    54   36   52 1   
    55   36   53 1   
    56   36   54 1   
    57   37   56 1   
    58   37   57 1   
    59   38   59 1   
    60   39   59 1   
    61   55   58 1   
@<TRIPOS>SUBSTRUCTURE
     1 IK8         1 TEMP              0 ****  ****    0 ROOT
