@<TRIPOS>MOLECULE
molecule
   46    50     1     0     0
SMALL
bcc


@<TRIPOS>ATOM
      1 F1           0.0000     0.0000     0.0000 f          1 IK9      -0.132900
      2 C2           1.3510     0.0000     0.0000 ca         1 IK9       0.222900
      3 C4           2.0320     0.0000     1.2020 ca         1 IK9      -0.291300
      4 C5           3.4260    -0.0010     1.2110 ca         1 IK9       0.512600
      5 C24          4.1270    -0.0000    -0.0170 ca         1 IK9      -0.266300
      6 C25          3.4220     0.0010    -1.2280 ca         1 IK9       0.293600
      7 N26          4.1050     0.0010    -2.4380 nu         1 IK9      -0.784600
      8 C27          3.3600     0.0010    -3.7000 c3         1 IK9       0.229800
      9 C28          4.3430     0.0010    -4.8720 c3         1 IK9       0.126400
     10 O29          5.0850    -1.2200    -4.8720 oh         1 IK9      -0.601800
     11 C3           2.0360    -0.0050    -1.2070 ca         1 IK9      -0.291000
     12 C23          5.5900    -0.0000     0.0290 cc         1 IK9       0.161700
     13 N22          6.5260     0.0010    -0.8980 nd         1 IK9      -0.459300
     14 C20          7.7430     0.0010    -0.3250 cd         1 IK9       0.756800
     15 N21          8.8920     0.0030    -0.9570 n2         1 IK9      -0.866100
     16 N19          7.5710     0.0010     1.0490 na         1 IK9      -0.429500
     17 N18          6.1850    -0.0000     1.2690 na         1 IK9      -0.214200
     18 C7           5.4260    -0.0010     2.3940 cc         1 IK9       0.593800
     19 N6           4.1270    -0.0010     2.3740 nd         1 IK9      -0.712000
     20 C8           6.1230    -0.0010     3.7300 c3         1 IK9      -0.082400
     21 C9           5.0950    -0.0020     4.8320 ca         1 IK9      -0.070300
     22 C17          4.6250    -1.2000     5.3370 ca         1 IK9      -0.104000
     23 C16          3.6820    -1.2070     6.3470 ca         1 IK9      -0.110000
     24 C15          3.2060    -0.0110     6.8590 ca         1 IK9       0.056100
     25 C11          3.6800     1.1970     6.3510 ca         1 IK9       0.051100
     26 C10          4.6280     1.1950     5.3420 ca         1 IK9      -0.094000
     27 O14          2.2930     0.2560     7.8380 os         1 IK9      -0.325900
     28 C13          2.5130     1.6310     8.2060 c3         1 IK9       0.332200
     29 O12          3.0630     2.2200     7.0130 os         1 IK9      -0.325900
     30 H4           1.4840     0.0600     2.1350 ha         1 IK9       0.167000
     31 H3           1.4830    -0.0140    -2.1390 ha         1 IK9       0.153000
     32 H26          5.1060     0.0270    -2.4480 hn         1 IK9       0.492800
     33 H271         2.7360    -0.8830    -3.7520 h1         1 IK9       0.050700
     34 H272         2.7370     0.8860    -3.7520 h1         1 IK9       0.050700
     35 H281         5.0240     0.8380    -4.7720 h1         1 IK9       0.033200
     36 H282         3.7950     0.0910    -5.8030 h1         1 IK9       0.033200
     37 H29          5.5350    -1.3140    -5.6950 ho         1 IK9       0.407000
     38 H21          9.7480     0.0030    -0.4390 hn         1 IK9       0.396400
     39 H19          8.2900     0.0010     1.7450 hn         1 IK9       0.327700
     40 H81C         6.7420     0.8840     3.8150 hc         1 IK9       0.071700
     41 H82C         6.7430    -0.8850     3.8140 hc         1 IK9       0.071700
     42 H17          5.0030    -2.1370     4.9450 ha         1 IK9       0.139000
     43 H10          5.0140     2.1330     4.9610 ha         1 IK9       0.143000
     44 H16          3.3160    -2.1480     6.7400 ha         1 IK9       0.146000
     45 H131         1.5690     2.1020     8.4480 h2         1 IK9       0.071700
     46 H132         3.2380     1.6850     9.0100 h2         1 IK9       0.071700
@<TRIPOS>BOND
     1     1     2 1
     2     2     3 ar
     3     2    11 ar
     4     3     4 ar
     5     4     5 ar
     6     4    19 1
     7     5     6 ar
     8     5    12 1
     9     6     7 1
    10     6    11 ar
    11     7     8 1
    12     8     9 1
    13     9    10 1
    14    12    13 2
    15    12    17 1
    16    13    14 1
    17    14    15 2
    18    14    16 1
    19    16    17 1
    20    17    18 1
    21    18    19 2
    22    18    20 1
    23    20    21 1
    24    21    22 ar
    25    21    26 ar
    26    22    23 ar
    27    23    24 ar
    28    24    25 ar
    29    24    27 1
    30    25    26 ar
    31    25    29 1
    32    27    28 1
    33    28    29 1
    34     3    30 1
    35    11    31 1
    36     7    32 1
    37     8    33 1
    38     8    34 1
    39     9    35 1
    40     9    36 1
    41    10    37 1
    42    15    38 1
    43    16    39 1
    44    20    40 1
    45    20    41 1
    46    22    42 1
    47    26    43 1
    48    23    44 1
    49    28    45 1
    50    28    46 1
@<TRIPOS>SUBSTRUCTURE
     1 IK9         1 TEMP              0 ****  ****    0 ROOT
