@<TRIPOS>MOLECULE
molecule
   32    34     1     0     0
SMALL
bcc


@<TRIPOS>ATOM
      1 C1           0.0000     0.0000     0.0000 c3         1 IKM       0.196000
      2 C2           2.1990     0.0000     1.0960 c2         1 IKM      -0.126200
      3 C3           1.5030     0.0000     0.0000 c2         1 IKM      -0.237200
      4 C4           0.0790     0.2580     2.4050 c3         1 IKM       0.142500
      5 C5           1.5980    -0.0010     2.4650 c3         1 IKM       0.123300
      6 O1           1.7540    -1.2790     3.0920 os         1 IKM      -0.369600
      7 N2           0.7110    -0.0990     5.7730 ns         1 IKM      -0.549900
      8 C6           0.9770    -1.5160     5.3830 c3         1 IKM       0.002700
      9 C7           0.6060    -1.5800     3.8880 c3         1 IKM       0.171800
     10 C8          -0.3980    -0.4030     3.7270 c3         1 IKM      -0.180700
     11 C9          -0.0640     0.5260     4.8730 c          1 IKM       0.707500
     12 O2          -0.4440     1.6740     4.9650 o          1 IKM      -0.737500
     13 C10         -0.0180    -2.9260     3.5080 c3         1 IKM      -0.167400
     14 C11          0.1120    -2.4490     6.1900 c          1 IKM       0.875600
     15 O3           0.4320    -3.7490     6.2850 o          1 IKM      -0.822800
     16 C12          0.9420    -4.0370     3.8460 c          1 IKM       0.938600
     17 O4           0.6050    -5.3120     3.5980 o          1 IKM      -0.861800
     18 O5           2.0150    -3.7810     4.3400 o          1 IKM      -0.861800
     19 O6          -0.8710    -2.0270     6.7540 o          1 IKM      -0.822800
     20 N1          -0.4970    -0.5010     1.2860 n7         1 IKM      -0.812200
     21 H1          -0.3590     1.0110    -0.1540 h1         1 IKM       0.038700
     22 H2          -0.3590    -0.6400    -0.7970 h1         1 IKM       0.038700
     23 H3           3.2790     0.0010     1.0140 ha         1 IKM       0.108000
     24 H4           2.0250     0.0000    -0.9490 ha         1 IKM       0.096000
     25 H5          -0.1600     1.3130     2.3620 h1         1 IKM       0.075700
     26 H6           2.0730     0.7610     3.0710 h1         1 IKM       0.041700
     27 H7           1.0660     0.3310     6.6040 hn         1 IKM       0.308500
     28 H8           2.0250    -1.7520     5.5190 h1         1 IKM       0.100700
     29 H9          -1.4330    -0.7200     3.7080 hc         1 IKM       0.112700
     30 H10         -0.2270    -2.9390     2.4450 hc         1 IKM       0.039200
     31 H11         -0.9400    -3.0650     4.0590 hc         1 IKM       0.039200
     32 H14         -0.2600    -1.4680     1.3820 hn         1 IKM       0.392800
@<TRIPOS>BOND
     1     1    20 1
     2     1     3 1
     3    20     4 1
     4     3     2 2
     5     4    10 1
     6     4     5 1
     7     2     5 1
     8    18    16 1
     9    12    11 2
    10    10    11 1
    11    10     9 1
    12     5     6 1
    13    11     7 1
    14    16    17 1
    15    16    13 1
    16     6     9 1
    17     9    13 1
    18     9     8 1
    19     7     8 1
    20     8    14 1
    21    14    19 1
    22    14    15 1
    23     1    21 1
    24     1    22 1
    25     2    23 1
    26     3    24 1
    27     4    25 1
    28     5    26 1
    29     7    27 1
    30     8    28 1
    31    10    29 1
    32    13    30 1
    33    13    31 1
    34    20    32 1
@<TRIPOS>SUBSTRUCTURE
     1 IKM         1 TEMP              0 ****  ****    0 ROOT
