@<TRIPOS>MOLECULE
IKM
   32    34     1     0     0
SMALL
bcc


@<TRIPOS>ATOM
      1 C1           0.0000     0.0000     0.0000 c3         1 IKM       0.203000
      2 C2           2.1990     0.0000     1.0960 c2         1 IKM      -0.110200
      3 C3           1.5030     0.0000     0.0000 c2         1 IKM      -0.217200
      4 C4           0.0790     0.2580     2.4050 c3         1 IKM       0.101500
      5 C5           1.5980    -0.0010     2.4650 c3         1 IKM       0.164300
      6 O1           1.7540    -1.2790     3.0920 os         1 IKM      -0.354600
      7 N2           0.7110    -0.0990     5.7730 ns         1 IKM      -0.134900
      8 C6           0.9770    -1.5160     5.3830 c3         1 IKM      -0.109300
      9 C7           0.6060    -1.5800     3.8880 c3         1 IKM       0.198800
     10 C8          -0.3980    -0.4030     3.7270 c3         1 IKM      -0.166700
     11 C9          -0.0640     0.5260     4.8730 c          1 IKM       0.625500
     12 O2          -0.4440     1.6740     4.9650 o          1 IKM      -0.784500
     13 C10         -0.0180    -2.9260     3.5080 c3         1 IKM      -0.139400
     14 C11          0.1120    -2.4490     6.1900 c          1 IKM       0.959600
     15 O3           0.4320    -3.7490     6.2850 o          1 IKM      -0.871300
     16 C12          0.9420    -4.0370     3.8460 c          1 IKM       1.028600
     17 O4           0.6050    -5.3120     3.5980 o          1 IKM      -0.912300
     18 O5           2.0150    -3.7810     4.3400 o          1 IKM      -0.912300
     19 O6          -0.8710    -2.0270     6.7540 o          1 IKM      -0.871300
     20 N1          -0.4970    -0.5010     1.2860 n7         1 IKM      -0.607200
     21 H1          -0.3590     1.0110    -0.1540 h1         1 IKM       0.006700
     22 H2          -0.3590    -0.6400    -0.7970 h1         1 IKM       0.006700
     23 H3           3.2790     0.0010     1.0140 ha         1 IKM       0.084000
     24 H4           2.0250     0.0000    -0.9490 ha         1 IKM       0.079000
     25 H5          -0.1600     1.3130     2.3620 h1         1 IKM       0.049700
     26 H6           2.0730     0.7610     3.0710 h1         1 IKM       0.012700
     27 H7           1.0660     0.3310     6.6040 hn         1 IKM       0.162500
     28 H8           2.0250    -1.7520     5.5190 h1         1 IKM       0.080700
     29 H9          -1.4330    -0.7200     3.7080 hc         1 IKM       0.083700
     30 H10         -0.2270    -2.9390     2.4450 hc         1 IKM       0.020700
     31 H11         -0.9400    -3.0650     4.0590 hc         1 IKM       0.020700
     32 H14         -0.2600    -1.4680     1.3820 hn         1 IKM       0.303800
@<TRIPOS>BOND
     1     1     3 1   
     2     1    20 1   
     3     1    21 1   
     4     1    22 1   
     5     2     3 2   
     6     2     5 1   
     7     2    23 1   
     8     3    24 1   
     9     4     5 1   
    10     4    10 1   
    11     4    20 1   
    12     4    25 1   
    13     5     6 1   
    14     5    26 1   
    15     6     9 1   
    16     7     8 1   
    17     7    11 1   
    18     7    27 1   
    19     8     9 1   
    20     8    14 1   
    21     8    28 1   
    22     9    10 1   
    23     9    13 1   
    24    10    11 1   
    25    10    29 1   
    26    11    12 2   
    27    13    16 1   
    28    13    30 1   
    29    13    31 1   
    30    14    15 1   
    31    14    19 1   
    32    16    17 1   
    33    16    18 1   
    34    20    32 1   
@<TRIPOS>SUBSTRUCTURE
     1 IKM         1 TEMP              0 ****  ****    0 ROOT
