@<TRIPOS>MOLECULE
IKR
   45    46     1     0     0
SMALL
bcc


@<TRIPOS>ATOM
      1 C1           0.0000     0.0000     0.0000 ca         1 IKR       0.165900
      2 C2           1.3830     0.0000     0.0000 ca         1 IKR      -0.030300
      3 C3           2.0740     0.0000     1.1960 ca         1 IKR      -0.205000
      4 C4           1.3800     0.0000     2.3970 ca         1 IKR       0.162100
      5 C5          -0.0070    -0.0010     2.3940 ca         1 IKR      -0.128300
      6 C6          -0.6940    -0.0010     1.1970 ca         1 IKR      -0.045000
      7 C11         -0.7640    -0.0010     3.6980 c3         1 IKR       0.075200
      8 O15          2.0580    -0.0000     3.5750 os         1 IKR      -0.298900
      9 C16          3.4800    -0.1160     3.5040 c3         1 IKR       0.241700
     10 C17          4.0450    -0.2210     4.8970 ca         1 IKR      -0.061300
     11 C20          5.4270    -0.2460     5.0910 ca         1 IKR      -0.143900
     12 C21          5.9420    -0.3440     6.3840 ca         1 IKR      -0.064000
     13 C22          5.0840    -0.4140     7.4620 ca         1 IKR      -0.105000
     14 C23          3.7150    -0.3890     7.2640 ca         1 IKR      -0.083000
     15 C24          3.1980    -0.2860     5.9840 ca         1 IKR      -0.088000
     16 C29          6.3420    -0.1700     3.9290 ce         1 IKR       0.368900
     17 C30          6.3990     1.0620     3.1110 c          1 IKR       0.624800
     18 O31          7.1490     1.0940     1.9920 os         1 IKR      -0.396900
     19 C32          7.1570     2.3350     1.2390 c3         1 IKR       0.266700
     20 O36          5.7710     2.0450     3.4500 o          1 IKR      -0.568000
     21 N37          7.0970    -1.1870     3.6270 n2         1 IKR      -0.331200
     22 O38          6.9640    -2.4040     4.3400 os         1 IKR      -0.182300
     23 C39          7.9280    -3.3950     3.9820 c3         1 IKR       0.264700
     24 C40          2.1360     0.0010    -1.3050 c3         1 IKR       0.051200
     25 I1          -1.0460     0.0080    -1.8160 i          1 IKR      -0.298900
     26 H3           3.1580     0.0000     1.1960 ha         1 IKR       0.127000
     27 H6          -1.7780    -0.0020     1.1940 ha         1 IKR       0.121000
     28 H11         -0.4710     0.8590     4.2860 hc         1 IKR       0.009367
     29 H11A        -1.8280     0.0430     3.4970 hc         1 IKR       0.009367
     30 H11B        -0.5380    -0.9080     4.2460 hc         1 IKR       0.009367
     31 H16          3.7430    -1.0040     2.9400 h1         1 IKR       0.021200
     32 H16A         3.8900     0.7580     3.0130 h1         1 IKR       0.021200
     33 H21          7.0140    -0.3630     6.5400 ha         1 IKR       0.107000
     34 H22          5.4840    -0.4920     8.4660 ha         1 IKR       0.105000
     35 H23          3.0450    -0.4420     8.1140 ha         1 IKR       0.103000
     36 H24          2.1250    -0.2670     5.8350 ha         1 IKR       0.123000
     37 H32          7.7830     2.2220     0.3620 h1         1 IKR       0.002700
     38 H32A         6.1470     2.5780     0.9320 h1         1 IKR       0.002700
     39 H32B         7.5470     3.1320     1.8610 h1         1 IKR       0.002700
     40 H39          8.9240    -3.0220     4.1890 h1         1 IKR      -0.000967
     41 H39A         7.8390    -3.6210     2.9260 h1         1 IKR      -0.000967
     42 H39B         7.7520    -4.2950     4.5600 h1         1 IKR      -0.000967
     43 H40          3.1350    -0.3850    -1.1450 hc         1 IKR       0.015700
     44 H40A         1.6170    -0.6250    -2.0210 hc         1 IKR       0.015700
     45 H40B         2.1960     1.0130    -1.6860 hc         1 IKR       0.015700
@<TRIPOS>BOND
     1     1     2 ar  
     2     1     6 ar  
     3     1    25 1   
     4     2     3 ar  
     5     2    24 1   
     6     3     4 ar  
     7     3    26 1   
     8     4     5 ar  
     9     4     8 1   
    10     5     6 ar  
    11     5     7 1   
    12     6    27 1   
    13     7    28 1   
    14     7    29 1   
    15     7    30 1   
    16     8     9 1   
    17     9    10 1   
    18     9    31 1   
    19     9    32 1   
    20    10    11 ar  
    21    10    15 ar  
    22    11    12 ar  
    23    11    16 1   
    24    12    13 ar  
    25    12    33 1   
    26    13    14 ar  
    27    13    34 1   
    28    14    15 ar  
    29    14    35 1   
    30    15    36 1   
    31    16    17 1   
    32    16    21 2   
    33    17    18 1   
    34    17    20 2   
    35    18    19 1   
    36    19    37 1   
    37    19    38 1   
    38    19    39 1   
    39    21    22 1   
    40    22    23 1   
    41    23    40 1   
    42    23    41 1   
    43    23    42 1   
    44    24    43 1   
    45    24    44 1   
    46    24    45 1   
@<TRIPOS>SUBSTRUCTURE
     1 IKR         1 TEMP              0 ****  ****    0 ROOT
