@<TRIPOS>MOLECULE
molecule
   45    46     1     0     0
SMALL
bcc


@<TRIPOS>ATOM
      1 C1           0.0000     0.0000     0.0000 ca         1 IKR       0.017900
      2 C2           1.3830     0.0000     0.0000 ca         1 IKR      -0.017300
      3 C3           2.0740     0.0000     1.1960 ca         1 IKR      -0.219000
      4 C4           1.3800     0.0000     2.3970 ca         1 IKR       0.162100
      5 C5          -0.0070    -0.0010     2.3940 ca         1 IKR      -0.118300
      6 C6          -0.6940    -0.0010     1.1970 ca         1 IKR      -0.060000
      7 C11         -0.7640    -0.0010     3.6980 c3         1 IKR      -0.035800
      8 O15          2.0580    -0.0000     3.5750 os         1 IKR      -0.323900
      9 C16          3.4800    -0.1160     3.5040 c3         1 IKR       0.176700
     10 C17          4.0450    -0.2210     4.8970 ca         1 IKR      -0.051300
     11 C20          5.4270    -0.2460     5.0910 ca         1 IKR      -0.148900
     12 C21          5.9420    -0.3440     6.3840 ca         1 IKR      -0.086000
     13 C22          5.0840    -0.4140     7.4620 ca         1 IKR      -0.130000
     14 C23          3.7150    -0.3890     7.2640 ca         1 IKR      -0.113000
     15 C24          3.1980    -0.2860     5.9840 ca         1 IKR      -0.108000
     16 C29          6.3420    -0.1700     3.9290 ce         1 IKR       0.395900
     17 C30          6.3990     1.0620     3.1110 c          1 IKR       0.567800
     18 O31          7.1490     1.0940     1.9920 os         1 IKR      -0.408900
     19 C32          7.1570     2.3350     1.2390 c3         1 IKR       0.137700
     20 O36          5.7710     2.0450     3.4500 o          1 IKR      -0.520000
     21 N37          7.0970    -1.1870     3.6270 n2         1 IKR      -0.372200
     22 O38          6.9640    -2.4040     4.3400 os         1 IKR      -0.188300
     23 C39          7.9280    -3.3950     3.9820 c3         1 IKR       0.134700
     24 C40          2.1360     0.0010    -1.3050 c3         1 IKR      -0.060800
     25 I1          -1.0460     0.0080    -1.8160 i          1 IKR      -0.176900
     26 H3           3.1580     0.0000     1.1960 ha         1 IKR       0.141000
     27 H6          -1.7780    -0.0020     1.1940 ha         1 IKR       0.146000
     28 H11         -1.8280     0.0430     3.4970 hc         1 IKR       0.045700
     29 H11A        -0.5380    -0.9080     4.2460 hc         1 IKR       0.045700
     30 H11B        -0.4710     0.8590     4.2860 hc         1 IKR       0.045700
     31 H16          3.8900     0.7580     3.0130 h1         1 IKR       0.055700
     32 H16A         3.7430    -1.0030     2.9400 h1         1 IKR       0.055700
     33 H21          7.0140    -0.3630     6.5400 ha         1 IKR       0.138000
     34 H22          5.4840    -0.4920     8.4660 ha         1 IKR       0.134000
     35 H23          3.0450    -0.4420     8.1140 ha         1 IKR       0.133000
     36 H24          2.1250    -0.2670     5.8350 ha         1 IKR       0.153000
     37 H32          7.5600     3.1290     1.8560 h1         1 IKR       0.052700
     38 H32A         6.1450     2.5850     0.9440 h1         1 IKR       0.052700
     39 H32B         7.7720     2.2170     0.3550 h1         1 IKR       0.052700
     40 H39          7.7540    -4.2940     4.5620 h1         1 IKR       0.045033
     41 H39A         8.9240    -3.0210     4.1860 h1         1 IKR       0.045033
     42 H39B         7.8360    -3.6240     2.9270 h1         1 IKR       0.045033
     43 H40          1.6170    -0.6240    -2.0220 hc         1 IKR       0.053033
     44 H40A         3.1350    -0.3860    -1.1450 hc         1 IKR       0.053033
     45 H40B         2.1970     1.0130    -1.6860 hc         1 IKR       0.053033
@<TRIPOS>BOND
     1     1     2 ar
     2     1     6 ar
     3     1    25 1
     4     2     3 ar
     5     2    24 1
     6     3     4 ar
     7     4     5 ar
     8     4     8 1
     9     5     6 ar
    10     5     7 1
    11     8     9 1
    12     9    10 1
    13    10    11 ar
    14    10    15 ar
    15    11    12 ar
    16    11    16 1
    17    12    13 ar
    18    13    14 ar
    19    14    15 ar
    20    16    17 1
    21    16    21 2
    22    17    18 1
    23    17    20 2
    24    18    19 1
    25    21    22 1
    26    22    23 1
    27     3    26 1
    28     6    27 1
    29     7    28 1
    30     7    29 1
    31     7    30 1
    32     9    31 1
    33     9    32 1
    34    12    33 1
    35    13    34 1
    36    14    35 1
    37    15    36 1
    38    19    37 1
    39    19    38 1
    40    19    39 1
    41    23    40 1
    42    23    41 1
    43    23    42 1
    44    24    43 1
    45    24    44 1
    46    24    45 1
@<TRIPOS>SUBSTRUCTURE
     1 IKR         1 TEMP              0 ****  ****    0 ROOT
