@<TRIPOS>MOLECULE
IKT
   36    35     1     0     0
SMALL
bcc


@<TRIPOS>ATOM
      1 C1           0.0000     0.0000     0.0000 c          1 IKT       0.975600
      2 O1           1.3420     0.0000     0.0000 o          1 IKT      -0.866800
      3 O2          -0.6040     0.0000     1.0460 o          1 IKT      -0.866800
      4 C2          -0.7550     0.0030    -1.3040 c3         1 IKT      -0.158400
      5 C3          -2.2500    -0.1570    -1.0280 c3         1 IKT      -0.039700
      6 C4          -2.5170    -1.5440    -0.4430 c3         1 IKT      -0.041400
      7 C5          -4.0120    -1.7030    -0.1670 c3         1 IKT      -0.036400
      8 C6          -4.2790    -3.0900     0.4180 c3         1 IKT      -0.034400
      9 C7          -5.7750    -3.2500     0.6950 c3         1 IKT      -0.016400
     10 C8          -6.0420    -4.6370     1.2800 c3         1 IKT      -0.133400
     11 C9          -7.5160    -4.7940     1.5510 c          1 IKT       0.981600
     12 O3          -7.9850    -5.9400     2.0710 o          1 IKT      -0.907800
     13 O4          -8.2750    -3.8880     1.3020 o          1 IKT      -0.907800
     14 C1'         -3.0280     0.0030    -2.3360 c3         1 IKT      -0.102500
     15 C2'         -2.4920    -0.9840    -3.3730 c3         1 IKT      -0.018100
     16 N1'         -2.8690     1.3740    -2.8360 nz         1 IKT       0.060400
     17 H21         -0.5810     0.9400    -1.8200 hc         1 IKT       0.001200
     18 H22         -0.4120    -0.8180    -1.9220 hc         1 IKT       0.001200
     19 H3          -2.5700     0.6000    -0.3230 hc         1 IKT       0.058700
     20 H41         -2.1980    -2.3010    -1.1490 hc         1 IKT       0.056700
     21 H42         -1.9660    -1.6570     0.4820 hc         1 IKT       0.056700
     22 H51         -4.3320    -0.9460     0.5390 hc         1 IKT       0.001200
     23 H52         -4.5640    -1.5900    -1.0920 hc         1 IKT       0.001200
     24 H61         -3.9600    -3.8470    -0.2870 hc         1 IKT       0.013700
     25 H62         -3.7280    -3.2030     1.3440 hc         1 IKT       0.013700
     26 H71         -6.3270    -3.1360    -0.2310 hc         1 IKT       0.015700
     27 H72         -6.0940    -2.4930     1.4000 hc         1 IKT       0.015700
     28 H81         -5.7220    -5.3940     0.5750 hc         1 IKT       0.007200
     29 H82         -5.4910    -4.7500     2.2060 hc         1 IKT       0.007200
     30 H1'         -4.0780    -0.1970    -2.1570 hx         1 IKT       0.100700
     31 H2'1        -1.4420    -0.7870    -3.5510 hc         1 IKT       0.036033
     32 H2'2        -3.0420    -0.8690    -4.3000 hc         1 IKT       0.036033
     33 H2'3        -2.6120    -1.9960    -3.0060 hc         1 IKT       0.036033
     34 HN11        -2.6010     1.9760    -2.0830 hn         1 IKT       0.218133
     35 HN12        -2.1620     1.3910    -3.5440 hn         1 IKT       0.218133
     36 H1'3        -3.7360     1.6910    -3.2230 hn         1 IKT       0.218133
@<TRIPOS>BOND
     1     1     2 1   
     2     1     3 1   
     3     1     4 1   
     4     4     5 1   
     5     4    17 1   
     6     4    18 1   
     7     5     6 1   
     8     5    14 1   
     9     5    19 1   
    10     6     7 1   
    11     6    20 1   
    12     6    21 1   
    13     7     8 1   
    14     7    22 1   
    15     7    23 1   
    16     8     9 1   
    17     8    24 1   
    18     8    25 1   
    19     9    10 1   
    20     9    26 1   
    21     9    27 1   
    22    10    11 1   
    23    10    28 1   
    24    10    29 1   
    25    11    12 1   
    26    11    13 1   
    27    14    15 1   
    28    14    16 1   
    29    14    30 1   
    30    15    31 1   
    31    15    32 1   
    32    15    33 1   
    33    16    34 1   
    34    16    35 1   
    35    16    36 1   
@<TRIPOS>SUBSTRUCTURE
     1 IKT         1 TEMP              0 ****  ****    0 ROOT
