@<TRIPOS>MOLECULE
IKX
   30    31     1     0     0
SMALL
bcc


@<TRIPOS>ATOM
      1 O1           0.0000     0.0000     0.0000 o          1 IKX      -0.894300
      2 C1           1.2140     0.0000     0.0000 c          1 IKX       0.873100
      3 O2           1.8870     0.0000     1.1660 o          1 IKX      -0.894300
      4 C2           1.9550    -0.0060    -1.2830 ca         1 IKX       0.350300
      5 N1           3.2800    -0.0060    -1.2740 nb         1 IKX      -0.472000
      6 C3           1.2500    -0.0180    -2.4850 ca         1 IKX      -0.264800
      7 C4           1.9570    -0.0240    -3.6870 ca         1 IKX      -0.135200
      8 C5           3.3510    -0.0180    -3.6370 ca         1 IKX      -0.264800
      9 C6           3.9850    -0.0130    -2.3960 ca         1 IKX       0.350300
     10 C7           5.4650    -0.0120    -2.3310 c          1 IKX       0.873100
     11 O4           6.1180    -0.0170    -3.3540 o          1 IKX      -0.894300
     12 O3           6.0860    -0.0070    -1.1350 o          1 IKX      -0.894300
     13 N2           1.2890    -0.0350    -4.9070 na         1 IKX       0.206500
     14 C8           1.8840    -0.0420    -6.1740 cc         1 IKX      -0.200300
     15 C9           0.9250    -0.0530    -7.0860 cd         1 IKX      -0.323600
     16 C10          1.1270    -0.0640    -8.5790 c3         1 IKX       0.086900
     17 N4          -0.3100    -0.0530    -6.4260 na         1 IKX      -0.056400
     18 C11          1.0770    -1.5060    -9.0900 c3         1 IKX       0.216400
     19 N3          -0.0670    -0.0490    -5.0810 na         1 IKX      -0.063700
     20 O5           1.2690    -1.5160   -10.5060 oh         1 IKX      -0.609800
     21 H3           0.1670    -0.0220    -2.4860 ha         1 IKX       0.124500
     22 H5           3.9330    -0.0230    -4.5510 ha         1 IKX       0.124500
     23 H8           2.7920     0.5230    -6.3490 h4         1 IKX       0.150000
     24 HB          -0.4650     0.7750    -4.6730 hn         1 IKX       0.062700
     25 H101         0.3430     0.5150    -9.0530 hc         1 IKX       0.011700
     26 H102         2.0900     0.3710    -8.8160 hc         1 IKX       0.011700
     27 H4          -1.2110    -0.0620    -6.8620 hn         1 IKX       0.158700
     28 H111         1.8600    -2.0840    -8.6160 h1         1 IKX      -0.007800
     29 H112         0.1130    -1.9400    -8.8540 h1         1 IKX      -0.007800
     30 HC           1.2380    -2.4040   -10.8210 ho         1 IKX       0.379000
@<TRIPOS>BOND
     1     1     2 1   
     2     2     3 1   
     3     2     4 1   
     4     4     5 ar  
     5     4     6 ar  
     6     5     9 ar  
     7     6     7 ar  
     8     6    21 1   
     9     7     8 ar  
    10     7    13 1   
    11     8     9 ar  
    12     8    22 1   
    13     9    10 1   
    14    10    11 1   
    15    10    12 1   
    16    13    14 1   
    17    13    19 1   
    18    14    15 2   
    19    14    23 1   
    20    15    16 1   
    21    15    17 1   
    22    16    18 1   
    23    16    25 1   
    24    16    26 1   
    25    17    19 1   
    26    17    27 1   
    27    18    20 1   
    28    18    28 1   
    29    18    29 1   
    30    19    24 1   
    31    20    30 1   
@<TRIPOS>SUBSTRUCTURE
     1 IKX         1 TEMP              0 ****  ****    0 ROOT
