@<TRIPOS>MOLECULE
IKY
   27    28     1     0     0
SMALL
bcc


@<TRIPOS>ATOM
      1 FAC         1.8230    1.9290    1.9370 f         1 IKY     -0.232967
      2 CAS         2.8200    1.5330    1.0810 c3        1 IKY      0.690200
      3 FAD         3.9340    2.1830    1.5580 f         1 IKY     -0.232967
      4 FAE         3.0260    0.2160    1.4150 f         1 IKY     -0.232967
      5 CAR         2.5190    1.7830   -0.3990 ca        1 IKY     -0.116300
      6 CAI         1.4150    2.5810   -0.7060 ca        1 IKY     -0.086000
      7 CAG         1.0670    2.8340   -2.0350 ca        1 IKY     -0.083000
      8 CAF         1.8200    2.2840   -3.0690 ca        1 IKY     -0.098000
      9 CAH         2.9280    1.4890   -2.7760 ca        1 IKY     -0.083000
     10 CAP         3.2900    1.2400   -1.4430 ca        1 IKY     -0.131500
     11 CAQ         4.4700    0.4260   -1.2070 cc        1 IKY      0.625900
     12 NAK         5.3990    0.4390   -0.2570 nd        1 IKY     -0.680000
     13 OAM         4.7420   -0.5910   -2.1760 os        1 IKY     -0.343800
     14 CAJ         5.8900   -1.2210   -1.7640 cc        1 IKY      0.352300
     15 CAO         6.3050   -0.6020   -0.5770 cd        1 IKY      0.082500
     16 CAN         7.4530   -0.9440    0.2290 c         1 IKY      0.523600
     17 OAA         8.3360   -1.7540    0.0410 o         1 IKY     -0.361100
     18 NAL         7.5130   -0.1140    1.5450 n4        1 IKY     -0.455300
     19 OAB         8.5970   -0.5160    2.2420 oh        1 IKY     -0.344300
     20 HAI         0.8060    3.0130    0.1090 ha        1 IKY      0.175000
     21 HAG         0.1920    3.4670   -2.2590 ha        1 IKY      0.168000
     22 HAF         1.5460    2.4740   -4.1200 ha        1 IKY      0.166000
     23 HAH         3.5230    1.0510   -3.5940 ha        1 IKY      0.160000
     24 HAJ         6.2530   -2.0400   -2.3920 h4        1 IKY      0.113100
     25 HAL         7.5760    0.8900    1.2980 hn        1 IKY      0.477300
     26 HAB         8.6340   -0.0170    3.0900 ho        1 IKY      0.468000
     27 HAL2        6.6380   -0.2810    2.0770 hn        1 IKY      0.477300
@<TRIPOS>BOND
     1    1    2 1
     2    2    3 1
     3    2    4 1
     4    2    5 1
     5    5    6 ar
     6    5   10 ar
     7    6    7 ar
     8    6   20 1
     9    7    8 ar
    10    7   21 1
    11    8    9 ar
    12    8   22 1
    13    9   10 ar
    14    9   23 1
    15   10   11 1
    16   11   12 2
    17   11   13 1
    18   12   15 1
    19   13   14 1
    20   14   15 2
    21   14   24 1
    22   15   16 1
    23   16   17 2
    24   16   18 1
    25   18   19 1
    26   18   25 1
    27   18   27 1
    28   19   26 1
@<TRIPOS>SUBSTRUCTURE
     1 IKY         1 TEMP              0 ****  ****    0 ROOT
