@<TRIPOS>MOLECULE
IL2
   57    53     1     0     0
SMALL
bcc


@<TRIPOS>ATOM
      1 C1         -0.9430    0.0780    0.0660 c3        1 IL2     -0.191000
      2 O1         -0.9050    0.1650    3.0130 oh        1 IL2     -0.200000
      3 C2          2.9370   -0.2540   -1.1390 c2        1 IL2     -0.148000
      4 O2         -0.6710   -4.4550   -1.3190 oh        1 IL2     -0.356000
      5 C3         -1.5960   -0.9600    0.9690 c3        1 IL2     -0.182000
      6 C4          2.3950   -1.1570   -0.3240 c2        1 IL2     -0.253000
      7 C5         -1.2040   -0.9320    2.4190 c1        1 IL2     -0.032000
      8 C6         -0.8950    1.3950    0.6800 c1        1 IL2     -0.050000
      9 C7          3.3900    1.0840   -0.7100 c3        1 IL2     -0.204000
     10 C8         -0.7050    2.5520    0.0090 c1        1 IL2     -0.293000
     11 C9         -1.3270   -2.3600    0.4250 c3        1 IL2     -0.193000
     12 C10        -0.5160    3.6420   -0.5000 c1        1 IL2     -0.014000
     13 C11        -2.2120   -2.7210   -0.6590 c1        1 IL2     -0.064000
     14 C12         2.1830    4.1560   -2.6360 cx        1 IL2     -0.220500
     15 C13        -1.9090   -3.8040   -1.5850 c3        1 IL2     -0.084000
     16 C14         1.1040    4.1040   -3.6780 cx        1 IL2     -0.220500
     17 C15        -2.0240   -4.8950    3.3840 c2        1 IL2     -0.190000
     18 C16         1.8140    5.4000   -3.3970 cx        1 IL2     -0.198000
     19 C17        -1.9600   -6.3360    3.7560 c3        1 IL2     -0.023000
     20 C18        -1.2090   -3.9690    3.8820 c2        1 IL2     -0.215000
     21 C19         1.0760    6.5280   -2.6980 c2        1 IL2      0.357000
     22 C20        -3.2520   -6.9050    4.0030 c1        1 IL2     -0.147000
     23 C21        -4.3280   -7.3880    4.2140 c1        1 IL2     -0.187000
     24 C22        -5.6090   -7.9600    4.4660 c3        1 IL2     -0.100000
     25 H1         -1.4580    0.0710   -0.9350 hc        1 IL2      0.121000
     26 HO1        -0.8980    0.9960    2.4270 ho        1 IL2      0.256000
     27 H2          0.1380   -0.2090   -0.1280 hc        1 IL2      0.121000
     28 H3         -2.7140   -0.7840    0.9600 hc        1 IL2      0.133000
     29 H4          3.0720   -0.4680   -2.2130 ha        1 IL2      0.114000
     30 H4A         2.2480   -0.9720    0.7500 ha        1 IL2      0.112500
     31 H5          2.0610   -2.1430   -0.6740 ha        1 IL2      0.112500
     32 H6          1.2760    0.9230    1.8210 ha        1 IL2      0.001500
     33 H6A         1.6650    0.9100    2.3760 ha        1 IL2      0.001500
     34 H7          3.1500    1.2780    0.3650 hc        1 IL2      0.089333
     35 H7A         2.8990    1.8790   -1.3290 hc        1 IL2      0.089333
     36 H9         -1.5260   -3.1150    1.2530 hc        1 IL2      0.136500
     37 H10         4.4970    1.1750   -0.8470 hc        1 IL2      0.089333
     38 H11        -0.2350   -2.4690    0.1660 hc        1 IL2      0.136500
     39 H12        -0.3280    4.6090   -0.9640 ha        1 IL2      0.318000
     40 H12A        3.1510    3.6660   -2.8360 hc        1 IL2      0.091500
     41 H13        -1.9000   -3.3560   -2.6210 h1        1 IL2      0.112000
     42 H14         1.8910    4.0930   -1.5710 hc        1 IL2      0.091500
     43 H14A        1.2950    3.5740   -4.6250 hc        1 IL2      0.091500
     44 H15        -2.7980   -4.6390    2.6420 ha        1 IL2      0.123000
     45 H16         0.0540    4.0110   -3.3430 hc        1 IL2      0.091500
     46 H16A        2.5280    5.7830   -4.1510 hc        1 IL2      0.107000
     47 H17        -2.7530   -4.5510   -1.5280 h1        1 IL2      0.112000
     48 H17A       -1.4670   -6.9020    2.9120 hc        1 IL2      0.097000
     49 H18        -1.3150   -6.4780    4.6700 hc        1 IL2      0.097000
     50 H18A       -0.4390   -4.2020    4.6310 ha        1 IL2      0.137500
     51 H18B       -1.2510   -2.9080    3.5680 ha        1 IL2      0.137500
     52 H22        -6.4040   -7.1700    4.4320 hc        1 IL2      0.087333
     53 H22A       -5.8520   -8.7380    3.6970 hc        1 IL2      0.087333
     54 H22B       -5.6340   -8.4420    5.4770 hc        1 IL2      0.087333
     55 O3          1.3890    7.7100   -3.0040 o         1 IL2     -0.583000
     56 O4          0.1760    6.2510   -1.8430 o         1 IL2     -0.583000
     57 HO2        -0.5330   -5.1080   -2.0140 ho        1 IL2      0.191000
@<TRIPOS>BOND
     1    1    5 1   
     2    1    8 1   
     3    1   25 1   
     4    1   27 1   
     5    2    7 1   
     6    2   26 1   
     7    3    6 1   
     8    3    9 1   
     9    3   29 1   
    10    4   15 1   
    11    4   57 1   
    12    5    7 1   
    13    5   11 1   
    14    5   28 1   
    15    6   30 1   
    16    6   31 1   
    17    8   10 1   
    18    9   34 1   
    19    9   35 1   
    20    9   37 1   
    21   10   12 1   
    22   11   13 1   
    23   11   36 1   
    24   11   38 1   
    25   12   39 1   
    26   13   15 1   
    27   14   16 1   
    28   14   18 1   
    29   14   40 1   
    30   14   42 1   
    31   15   41 1   
    32   15   47 1   
    33   16   18 1   
    34   16   43 1   
    35   16   45 1   
    36   17   19 1   
    37   17   20 1   
    38   17   44 1   
    39   18   21 1   
    40   18   46 1   
    41   19   22 1   
    42   19   48 1   
    43   19   49 1   
    44   20   50 1   
    45   20   51 1   
    46   21   55 1   
    47   21   56 1   
    48   22   23 1   
    49   23   24 1   
    50   24   52 1   
    51   24   53 1   
    52   24   54 1   
    53   32   33 1   
@<TRIPOS>SUBSTRUCTURE
     1 IL2         1 TEMP              0 ****  ****    0 ROOT
