@<TRIPOS>MOLECULE
molecule
   57    58     1     0     0
SMALL
bcc


@<TRIPOS>ATOM
      1 C1           0.0000     0.0000     0.0000 c3         1 IL2      -0.060700
      2 O1           0.4350    -0.3310     3.4420 oh         1 IL2      -0.606800
      3 C2           1.5590     0.0000     0.0000 c3         1 IL2      -0.073700
      4 O2          -1.0870    -4.7710     0.0170 oh         1 IL2      -0.606800
      5 C3          -0.4070    -0.8540     1.2130 c3         1 IL2      -0.039500
      6 C4           1.9110     0.0000     1.5050 c3         1 IL2      -0.102400
      7 C5           0.7950    -0.8780     2.1720 c3         1 IL2       0.146100
      8 C6          -0.3400     1.4790     0.2880 c3         1 IL2      -0.039200
      9 C7           1.9330     1.3610    -0.6140 c3         1 IL2      -0.033200
     10 C8           0.7330     2.2740    -0.4310 c2         1 IL2      -0.164400
     11 C9          -0.7370    -2.2550     0.7670 c2         1 IL2      -0.138200
     12 C10          0.6320     3.5150    -0.8410 c2         1 IL2      -0.134200
     13 C11         -1.9330    -2.7460     0.9810 c2         1 IL2      -0.209200
     14 C12          1.7810     4.1620    -1.5710 c3         1 IL2      -0.060200
     15 C13         -2.2620    -4.1470     0.5350 c3         1 IL2       0.185300
     16 C14          1.2900     4.7050    -2.9150 c3         1 IL2      -0.058400
     17 C15         -2.7840    -4.9520     1.7270 c3         1 IL2      -0.074700
     18 C16          2.4560     5.3630    -3.6550 c3         1 IL2      -0.184400
     19 C17         -3.1190    -6.3750     1.2740 c3         1 IL2       0.010700
     20 C18         -1.7110    -5.0020     2.8160 c3         1 IL2      -0.085100
     21 C19          1.9730     5.8960    -4.9800 c          1 IL2       0.891600
     22 C20         -3.7320    -7.1130     2.3900 c1         1 IL2      -0.140100
     23 C21         -4.2270    -7.6840     3.2890 c1         1 IL2      -0.173100
     24 C22         -4.8320    -8.7220     4.4440 c3         1 IL2       0.035000
     25 H1          -0.4200    -0.3580    -0.9320 hc         1 IL2       0.068700
     26 HO1          0.9660    -0.7230     4.1160 ho         1 IL2       0.395000
     27 H2           1.9810    -0.8410    -0.5370 hc         1 IL2       0.056700
     28 H3          -1.2610    -0.4080     1.7070 hc         1 IL2       0.072700
     29 H4           1.8810     1.0090     1.8990 hc         1 IL2       0.052700
     30 H4A          2.8850    -0.4450     1.6640 hc         1 IL2       0.052700
     31 H5           1.1500    -1.8950     2.2900 h1         1 IL2       0.033700
     32 H6          -0.3010     1.6730     1.3530 hc         1 IL2       0.050200
     33 H6A         -1.3180     1.7230    -0.1100 hc         1 IL2       0.050200
     34 H7           2.7920     1.7740    -0.0990 hc         1 IL2       0.052200
     35 H7A          2.1490     1.2430    -1.6690 hc         1 IL2       0.052200
     36 H9           0.0150    -2.8570     0.2710 ha         1 IL2       0.142000
     37 H10         -0.2840     4.0680    -0.6740 ha         1 IL2       0.124000
     38 H11         -2.6840    -2.1440     1.4780 ha         1 IL2       0.132000
     39 H12          2.1750     4.9760    -0.9740 hc         1 IL2       0.037200
     40 H12A         2.5600     3.4290    -1.7400 hc         1 IL2       0.037200
     41 H13         -3.0220    -4.1110    -0.2370 h1         1 IL2       0.035700
     42 H14          0.8970     3.8910    -3.5110 hc         1 IL2       0.047200
     43 H14A         0.5110     5.4380    -2.7450 hc         1 IL2       0.047200
     44 H15         -3.6760    -4.4790     2.1200 hc         1 IL2       0.059700
     45 H16          3.2360     4.6300    -3.8240 hc         1 IL2       0.026700
     46 H16A         2.8490     6.1770    -3.0590 hc         1 IL2       0.026700
     47 H17         -2.2120    -6.8780     0.9620 hc         1 IL2       0.058700
     48 H17A        -3.8130    -6.3350     0.4430 hc         1 IL2       0.058700
     49 H18         -1.9800    -5.7490     3.5540 hc         1 IL2       0.041367
     50 H18A        -1.6360    -4.0330     3.2940 hc         1 IL2       0.041367
     51 H18B        -0.7570    -5.2610     2.3730 hc         1 IL2       0.041367
     52 H22         -5.5010    -8.1800     5.1010 hc         1 IL2       0.044367
     53 H22A        -5.3730    -9.5260     3.9600 hc         1 IL2       0.044367
     54 H22B        -4.0140    -9.1350     5.0220 hc         1 IL2       0.044367
     55 O3           2.8300     6.5190    -5.8040 o          1 IL2      -0.856800
     56 O4           0.8140     5.7650    -5.2970 o          1 IL2      -0.856800
     57 HO2         -1.2310    -5.0160    -0.8820 ho         1 IL2       0.401000
@<TRIPOS>BOND
     1     3     1 1
     2     5     1 1
     3     1     8 1
     4     1    25 1
     5     2     7 1
     6     2    26 1
     7     6     3 1
     8     9     3 1
     9     3    27 1
    10     4    15 1
    11     4    57 1
    12     7     5 1
    13     5    11 1
    14     5    28 1
    15    55    21 1
    16     6     7 1
    17     6    29 1
    18     6    30 1
    19    56    21 1
    20     7    31 1
    21    10     8 1
    22     8    32 1
    23     8    33 1
    24     9    10 1
    25     9    34 1
    26     9    35 1
    27    10    12 2
    28    11    13 2
    29    11    36 1
    30    14    12 1
    31    12    37 1
    32    13    15 1
    33    13    38 1
    34    14    16 1
    35    14    39 1
    36    14    40 1
    37    15    17 1
    38    15    41 1
    39    18    16 1
    40    16    42 1
    41    16    43 1
    42    17    20 1
    43    17    19 1
    44    17    44 1
    45    21    18 1
    46    18    45 1
    47    18    46 1
    48    19    22 1
    49    19    47 1
    50    19    48 1
    51    20    49 1
    52    20    50 1
    53    20    51 1
    54    22    23 3
    55    23    24 1
    56    24    52 1
    57    24    53 1
    58    24    54 1
@<TRIPOS>SUBSTRUCTURE
     1 IL2         1 TEMP              0 ****  ****    0 ROOT
