@<TRIPOS>MOLECULE
IL3
   32    32     1     0     0
SMALL
bcc


@<TRIPOS>ATOM
      1 C11          0.0000     0.0000     0.0000 c3         1 IL3       0.138000
      2 C10          1.4730     0.0000     0.0000 c1         1 IL3      -0.107100
      3 C9           2.6460     0.0000     0.0200 c1         1 IL3      -0.250100
      4 C8           4.1180     0.0090     0.0220 c3         1 IL3       0.404500
      5 O3           4.5190     0.7220    -0.8600 os         1 IL3      -0.290900
      6 C5           5.1740     2.0190    -0.7190 ca         1 IL3       0.051100
      7 C6           4.4740     3.0970    -1.5780 ca         1 IL3      -0.015500
      8 C7           5.4030     4.5820    -1.2760 ca         1 IL3      -0.107500
      9 C4           6.2120     2.4150    -0.0190 ca         1 IL3      -0.015500
     10 C3           6.5080     3.5330     0.5140 ca         1 IL3      -0.107500
     11 C2           6.1700     4.5040    -0.6520 ca         1 IL3      -0.145300
     12 C1           6.9560     5.8750    -0.3830 c3         1 IL3       0.244100
     13 N2           5.9680     6.9950    -0.4060 n7         1 IL3      -0.437100
     14 S1           5.9120     8.1930     0.9260 s6         1 IL3       0.517800
     15 O1           5.2930     7.2540     2.1010 o          1 IL3      -0.329800
     16 O2           7.2600     8.1790     1.4410 o          1 IL3      -0.329800
     17 N1           5.0620     9.5720     0.4960 nz         1 IL3      -0.071500
     18 H1          -0.3610     0.9820    -0.2810 hc         1 IL3       0.010367
     19 H2          -0.3610    -0.7340    -0.7100 hc         1 IL3       0.010367
     20 H3          -0.3610    -0.2470     0.9910 hc         1 IL3       0.010367
     21 H4           4.4850    -0.9980    -0.1330 h1         1 IL3      -0.001300
     22 H5           4.4750     0.3800     0.9760 h1         1 IL3      -0.001300
     23 H6           3.7460     2.9420    -2.3650 ha         1 IL3       0.116500
     24 H7           5.2680     5.4450    -1.9160 ha         1 IL3       0.118500
     25 H8           6.9250     1.6190     0.1600 ha         1 IL3       0.116500
     26 H9           7.3960     4.0660     0.1950 ha         1 IL3       0.118500
     27 H10          7.6990     6.0280    -1.1570 h1         1 IL3       0.047700
     28 H11          7.4400     5.8350     0.5850 h1         1 IL3       0.047700
     29 H12          5.3340     7.0810    -1.1760 hn         1 IL3       0.339800
     30 H13          5.0540    10.2120     1.2650 hn         1 IL3       0.306133
     31 H14          5.5020    10.0040    -0.2920 hn         1 IL3       0.306133
     32 H131         4.1220     9.3240     0.2590 hn         1 IL3       0.306133
@<TRIPOS>BOND
     1     1     2 1   
     2     1    18 1   
     3     1    19 1   
     4     1    20 1   
     5     2     3 3   
     6     3     4 1   
     7     4     5 1   
     8     4    21 1   
     9     4    22 1   
    10     5     6 1   
    11     6     7 ar  
    12     6     9 ar  
    13     7     8 ar  
    14     7    23 1   
    15     8    11 ar  
    16     8    24 1   
    17     9    10 ar  
    18     9    25 1   
    19    10    11 ar  
    20    10    26 1   
    21    11    12 1   
    22    12    13 1   
    23    12    27 1   
    24    12    28 1   
    25    13    14 1   
    26    13    29 1   
    27    14    15 2   
    28    14    16 2   
    29    14    17 1   
    30    17    30 1   
    31    17    31 1   
    32    17    32 1   
@<TRIPOS>SUBSTRUCTURE
     1 IL3         1 TEMP              0 ****  ****    0 ROOT
