@<TRIPOS>MOLECULE
molecule
   23    24     1     0     0
SMALL
bcc


@<TRIPOS>ATOM
      1 C2           0.0000     0.0000     0.0000 ca         1 IL5       0.099000
      2 C3           1.3670     0.0000     0.0000 ca         1 IL5      -0.277500
      3 S2           2.6020     0.0000     1.2700 sy         1 IL5       1.384900
      4 O3           2.5360    -1.2570     1.9290 o          1 IL5      -0.569800
      5 O4           2.5320     1.2530     1.9350 o          1 IL5      -0.569800
      6 N2           3.9820     0.0010     0.3270 ns         1 IL5      -0.620300
      7 C7           3.5580     0.0020    -0.9450 c          1 IL5       0.667100
      8 O5           4.3480     0.0030    -1.8680 o          1 IL5      -0.519500
      9 C4           2.1090     0.0020    -1.1880 ca         1 IL5      -0.012600
     10 C5           1.3960     0.0030    -2.3980 ca         1 IL5      -0.067000
     11 C6           0.0190     0.0030    -2.3940 ca         1 IL5       0.007000
     12 C1          -0.6870     0.0010    -1.2050 ca         1 IL5      -0.348500
     13 S1          -2.4500    -0.0060    -1.2200 sy         1 IL5       1.236200
     14 O1          -2.8380    -0.5480    -2.4750 o          1 IL5      -0.506800
     15 O2          -2.8600    -0.5560     0.0240 o          1 IL5      -0.506800
     16 N1          -2.9470     1.5740    -1.2190 nz         1 IL5      -0.809500
     17 H1          -0.5440    -0.0010     0.9370 ha         1 IL5       0.167000
     18 H2           4.9300     0.0460     0.6450 hn         1 IL5       0.405500
     19 H3           1.9310     0.0040    -3.3400 ha         1 IL5       0.189000
     20 H4          -0.5180     0.0030    -3.3350 ha         1 IL5       0.167000
     21 H5          -2.5890     2.0370    -2.0310 hn         1 IL5       0.495467
     22 H6          -2.6050     2.0300    -0.3960 hn         1 IL5       0.495467
     23 H13         -3.9470     1.6090    -1.2290 hn         1 IL5       0.495467
@<TRIPOS>BOND
     1     5     3 2
     2     8     7 2
     3     6     7 1
     4     6     3 1
     5     7     9 1
     6     3     2 1
     7     3     4 2
     8     9    10 ar
     9     9     2 ar
    10    10    11 ar
    11     2     1 ar
    12    11    12 ar
    13     1    12 ar
    14    12    13 1
    15    16    13 1
    16    15    13 2
    17    13    14 2
    18     1    17 1
    19     6    18 1
    20    10    19 1
    21    11    20 1
    22    16    21 1
    23    16    22 1
    24    23    16 1
@<TRIPOS>SUBSTRUCTURE
     1 IL5         1 TEMP              0 ****  ****    0 ROOT
