@<TRIPOS>MOLECULE
IL5
   23    24     1     0     0
SMALL
bcc


@<TRIPOS>ATOM
      1 C2           0.0000     0.0000     0.0000 ca         1 IL5       0.153000
      2 C3           1.3670     0.0000     0.0000 ca         1 IL5      -0.152500
      3 S2           2.6020     0.0000     1.2700 sy         1 IL5       1.034900
      4 O3           2.5360    -1.2570     1.9290 o          1 IL5      -0.536800
      5 O4           2.5320     1.2530     1.9350 o          1 IL5      -0.536800
      6 N2           3.9820     0.0010     0.3270 ns         1 IL5      -0.243300
      7 C7           3.5580     0.0020    -0.9450 c          1 IL5       0.627100
      8 O5           4.3480     0.0030    -1.8680 o          1 IL5      -0.576500
      9 C4           2.1090     0.0020    -1.1880 ca         1 IL5       0.001400
     10 C5           1.3960     0.0030    -2.3980 ca         1 IL5      -0.048000
     11 C6           0.0190     0.0030    -2.3940 ca         1 IL5       0.047000
     12 C1          -0.6870     0.0010    -1.2050 ca         1 IL5      -0.246500
     13 S1          -2.4500    -0.0060    -1.2200 sy         1 IL5       0.947200
     14 O1          -2.8380    -0.5480    -2.4750 o          1 IL5      -0.489300
     15 O2          -2.8600    -0.5560     0.0240 o          1 IL5      -0.489300
     16 N1          -2.9470     1.5740    -1.2190 nz         1 IL5      -0.130500
     17 H1          -0.5440    -0.0010     0.9370 ha         1 IL5       0.130000
     18 H2           4.9300     0.0460     0.6450 hn         1 IL5       0.283500
     19 H3           1.9310     0.0040    -3.3400 ha         1 IL5       0.149000
     20 H4          -0.5180     0.0030    -3.3350 ha         1 IL5       0.130000
     21 H5          -2.5890     2.0370    -2.0310 hn         1 IL5       0.315467
     22 H6          -2.6050     2.0300    -0.3960 hn         1 IL5       0.315467
     23 H13         -3.9470     1.6090    -1.2290 hn         1 IL5       0.315467
@<TRIPOS>BOND
     1     1     2 ar  
     2     1    12 ar  
     3     1    17 1   
     4     2     3 1   
     5     2     9 ar  
     6     3     4 2   
     7     3     5 2   
     8     3     6 1   
     9     6     7 1   
    10     6    18 1   
    11     7     8 2   
    12     7     9 1   
    13     9    10 ar  
    14    10    11 ar  
    15    10    19 1   
    16    11    12 ar  
    17    11    20 1   
    18    12    13 1   
    19    13    14 2   
    20    13    15 2   
    21    13    16 1   
    22    16    21 1   
    23    16    22 1   
    24    16    23 1   
@<TRIPOS>SUBSTRUCTURE
     1 IL5         1 TEMP              0 ****  ****    0 ROOT
