@<TRIPOS>MOLECULE
ILA
   58    60     1     0     0
SMALL
bcc


@<TRIPOS>ATOM
      1 N            0.0000     0.0000     0.0000 nz         1 ILA       0.089400
      2 CA           1.4690     0.0000     0.0000 c3         1 ILA      -0.166500
      3 CB           1.9800     0.0000     1.4430 c3         1 ILA      -0.058700
      4 CG2          3.5100    -0.0010     1.4430 c3         1 ILA      -0.003100
      5 CG1          1.4690     1.2490     2.1650 c3         1 ILA      -0.037400
      6 CD           1.9790     1.2480     3.6080 c3         1 ILA       0.011900
      7 C            1.9720    -1.2290    -0.7110 c          1 ILA       0.640100
      8 O            1.3160    -2.2490    -0.6940 o          1 ILA      -0.580100
      9 SA           3.7000    -2.5460    -2.1460 s6         1 ILA       1.117500
     10 O1A          4.8540    -2.1320    -2.8660 o          1 ILA      -0.530800
     11 O2A          3.6630    -3.5910    -1.1840 o          1 ILA      -0.530800
     12 N3A          3.1490    -1.1950    -1.3640 ns         1 ILA      -0.297300
     13 N5'          2.5760    -2.9500    -3.2920 n7         1 ILA      -0.574100
     14 C5'          2.2390    -2.0000    -4.3540 c3         1 ILA       0.227800
     15 C4'          1.1830    -2.6140    -5.2730 c3         1 ILA       0.146100
     16 O4'         -0.0160    -2.8840    -4.5270 os         1 ILA      -0.414600
     17 C1'         -1.1280    -2.6680    -5.4220 c3         1 ILA       0.154800
     18 N9          -2.3580    -2.4230    -4.6670 na         1 ILA       0.210000
     19 C4          -3.6350    -2.7060    -5.0810 ca         1 ILA       0.246800
     20 N3          -4.1700    -3.2500    -6.1690 nb         1 ILA      -0.605000
     21 C2          -5.4740    -3.4000    -6.2740 ca         1 ILA       0.658900
     22 N1          -6.3080    -3.0320    -5.3190 nb         1 ILA      -0.642000
     23 C6          -5.8650    -2.4840    -4.1920 ca         1 ILA       0.606200
     24 N6          -6.7470    -2.1010    -3.1960 nv         1 ILA      -0.646500
     25 C5          -4.4800    -2.3030    -4.0340 ca         1 ILA      -0.191200
     26 N7          -3.6910    -1.7960    -3.0560 nc         1 ILA      -0.494100
     27 C8          -2.4450    -1.8670    -3.4260 cd         1 ILA       0.236700
     28 C2'         -0.7100    -1.4060    -6.2180 c3         1 ILA       0.132100
     29 O2'         -1.3650    -1.3640    -7.4870 oh         1 ILA      -0.527800
     30 C3'          0.8160    -1.6200    -6.3900 c3         1 ILA       0.136100
     31 O3'          1.1010    -2.1750    -7.6760 oh         1 ILA      -0.538800
     32 HN1         -0.3340     0.9120     0.2430 hn         1 ILA       0.232467
     33 HN2         -0.3340    -0.6670     0.6680 hn         1 ILA       0.232467
     34 HA1          1.8300     0.8850    -0.5100 hx         1 ILA       0.093700
     35 HB           1.6180    -0.8850     1.9530 hc         1 ILA       0.065700
     36 HG21         3.8700    -1.0170     1.3380 hc         1 ILA       0.030033
     37 HG22         3.8710     0.4160     2.3760 hc         1 ILA       0.030033
     38 HG23         3.8710     0.5990     0.6160 hc         1 ILA       0.030033
     39 HG11         1.8310     2.1340     1.6550 hc         1 ILA       0.009200
     40 HG12         0.3860     1.2490     2.1650 hc         1 ILA       0.009200
     41 HD1          2.1070     0.2260     3.9450 hc         1 ILA       0.022367
     42 HD2          2.9290     1.7660     3.6560 hc         1 ILA       0.022367
     43 HD3          1.2610     1.7500     4.2450 hc         1 ILA       0.022367
     44 HNA          3.6690    -0.3420    -1.4130 hn         1 ILA       0.245500
     45 HN5          2.1570    -3.8590    -3.2840 hn         1 ILA       0.385800
     46 H51          1.8500    -1.0900    -3.9150 h1         1 ILA       0.010200
     47 H52          3.1290    -1.7720    -4.9290 h1         1 ILA       0.010200
     48 H4           1.5570    -3.5330    -5.7090 h1         1 ILA       0.063700
     49 H1          -1.2460    -3.5140    -6.0890 h2         1 ILA       0.086700
     50 H2          -5.8770    -3.8430    -7.1760 h5         1 ILA       0.009100
     51 H61         -7.0130    -2.7530    -2.4850 hn         1 ILA       0.285800
     52 H62         -7.1440    -1.1820    -3.2070 hn         1 ILA       0.285800
     53 H8          -1.6010    -1.5360    -2.8330 h5         1 ILA      -0.001200
     54 H2'         -0.9090    -0.5090    -5.6450 h1         1 ILA       0.008700
     55 HO2         -1.5670    -0.4700    -7.7080 ho         1 ILA       0.396000
     56 H3           1.3450    -0.6850    -6.2500 h1         1 ILA       0.008700
     57 HO3          1.7530    -1.6490    -8.1090 ho         1 ILA       0.399000
     58 HN3         -0.3340    -0.2390    -0.9130 hn         1 ILA       0.232467
@<TRIPOS>BOND
     1     1     2 1   
     2     1    32 1   
     3     1    33 1   
     4     1    58 1   
     5     2     3 1   
     6     2     7 1   
     7     2    34 1   
     8     3     4 1   
     9     3     5 1   
    10     3    35 1   
    11     4    36 1   
    12     4    37 1   
    13     4    38 1   
    14     5     6 1   
    15     5    39 1   
    16     5    40 1   
    17     6    41 1   
    18     6    42 1   
    19     6    43 1   
    20     7     8 2   
    21     7    12 1   
    22     9    10 2   
    23     9    11 2   
    24     9    12 1   
    25     9    13 1   
    26    12    44 1   
    27    13    14 1   
    28    13    45 1   
    29    14    15 1   
    30    14    46 1   
    31    14    47 1   
    32    15    16 1   
    33    15    30 1   
    34    15    48 1   
    35    16    17 1   
    36    17    18 1   
    37    17    28 1   
    38    17    49 1   
    39    18    19 1   
    40    18    27 1   
    41    19    20 ar  
    42    19    25 ar  
    43    20    21 ar  
    44    21    22 ar  
    45    21    50 1   
    46    22    23 ar  
    47    23    24 1   
    48    23    25 ar  
    49    24    51 1   
    50    24    52 1   
    51    25    26 1   
    52    26    27 2   
    53    27    53 1   
    54    28    29 1   
    55    28    30 1   
    56    28    54 1   
    57    29    55 1   
    58    30    31 1   
    59    30    56 1   
    60    31    57 1   
@<TRIPOS>SUBSTRUCTURE
     1 ILA         1 TEMP              0 ****  ****    0 ROOT
