@<TRIPOS>MOLECULE
ILB
   43    46     1     0     0
SMALL
bcc


@<TRIPOS>ATOM
      1 C1           0.0000     0.0000     0.0000 ca         1 ILB      -0.046000
      2 C2           1.3830     0.0000     0.0000 ca         1 ILB      -0.231000
      3 C3           2.0810     0.0000     1.2000 ca         1 ILB       0.109100
      4 C7          -0.6940    -0.0000     1.1930 ca         1 ILB      -0.113000
      5 C8          -0.2940     0.7750     4.7530 ca         1 ILB      -0.140000
      6 C9          -0.9880     0.7780     5.9460 ca         1 ILB       0.177400
      7 C11         -2.1340    -0.0010     6.0870 ca         1 ILB      -0.169400
      8 C13         -2.5840    -0.7760     5.0220 ca         1 ILB       0.177400
      9 C15         -1.8930    -0.7760     3.8270 ca         1 ILB      -0.140000
     10 C16         -3.2970    -1.1600     7.8070 cu         1 ILB      -0.310900
     11 C19         -4.4010    -3.3050     9.4530 ce         1 ILB      -0.059200
     12 C20         -5.0320    -3.0990    10.8100 c3         1 ILB       0.037800
     13 C21         -4.5560    -1.6970    11.2590 c3         1 ILB      -0.036400
     14 C22         -4.2800    -1.0070     9.9030 c3         1 ILB      -0.057200
     15 C27          3.8480    -0.0010    -0.1750 c3         1 ILB       0.747700
     16 C4           1.3920     0.0060     2.4010 ca         1 ILB      -0.104000
     17 C5          -0.0010     0.0000     2.4030 cp         1 ILB       0.007000
     18 C6          -0.7440    -0.0000     3.6860 cp         1 ILB       0.002000
     19 F14         -3.6990    -1.5270     5.1590 f          1 ILB      -0.105400
     20 C17         -3.9840    -2.1370     8.9450 ce         1 ILB      -0.052200
     21 O18         -3.9790    -0.6890     6.9190 op         1 ILB      -0.179400
     22 O24         -3.1000    -5.2810     8.8330 o          1 ILB      -0.890800
     23 O25         -5.2100    -5.0790     8.1710 o          1 ILB      -0.890800
     24 O26          3.4390    -0.0000     1.1950 os         1 ILB      -0.283900
     25 F28          3.3490     1.1420    -0.8100 f          1 ILB      -0.197300
     26 F29          5.2450    -0.0000    -0.2450 f          1 ILB      -0.197300
     27 F30          3.3480    -1.1430    -0.8100 f          1 ILB      -0.197300
     28 H1          -0.5400    -0.0000    -0.9390 ha         1 ILB       0.105000
     29 H2           1.9230    -0.0020    -0.9390 ha         1 ILB       0.147000
     30 H7          -1.7770    -0.0020     1.1890 ha         1 ILB       0.117000
     31 H8           0.5980     1.3800     4.6450 ha         1 ILB       0.128500
     32 H15         -2.2440    -1.3790     2.9990 ha         1 ILB       0.128500
     33 H201        -4.6850    -3.8540    11.5040 hc         1 ILB       0.014200
     34 H202        -6.1120    -3.1190    10.7280 hc         1 ILB       0.014200
     35 H211        -5.3370    -1.1810    11.8020 hc         1 ILB       0.000200
     36 H212        -3.6480    -1.7690    11.8460 hc         1 ILB       0.000200
     37 H221        -5.1550    -0.4580     9.5770 hc         1 ILB      -0.004800
     38 H222        -3.4230    -0.3490     9.9840 hc         1 ILB      -0.004800
     39 H4           1.9360     0.0060     3.3380 ha         1 ILB       0.129000
     40 HN12        -3.0300     0.8630     7.7620 hn         1 ILB       0.138800
     41 F10         -0.5520     1.5300     6.9810 f          1 ILB      -0.105400
     42 N12         -2.8340    -0.0010     7.2970 nk         1 ILB       0.357900
     43 C23         -4.2670    -4.6100     8.7770 c          1 ILB       0.976600
@<TRIPOS>BOND
     1     1     2 ar  
     2     1     4 ar  
     3     1    28 1   
     4     2     3 ar  
     5     2    29 1   
     6     3    16 ar  
     7     3    24 1   
     8     4    17 ar  
     9     4    30 1   
    10     5     6 ar  
    11     5    18 ar  
    12     5    31 1   
    13     6     7 ar  
    14     6    41 1   
    15     7     8 ar  
    16     7    42 1   
    17     8     9 ar  
    18     8    19 1   
    19     9    18 ar  
    20     9    32 1   
    21    10    20 2   
    22    10    21 1   
    23    10    42 1   
    24    11    12 1   
    25    11    20 1   
    26    11    43 2   
    27    12    13 1   
    28    12    33 1   
    29    12    34 1   
    30    13    14 1   
    31    13    35 1   
    32    13    36 1   
    33    14    20 1   
    34    14    37 1   
    35    14    38 1   
    36    15    24 1   
    37    15    25 1   
    38    15    26 1   
    39    15    27 1   
    40    16    17 ar  
    41    16    39 1   
    42    17    18 1   
    43    21    42 1   
    44    22    43 1   
    45    23    43 1   
    46    40    42 1   
@<TRIPOS>SUBSTRUCTURE
     1 ILB         1 TEMP              0 ****  ****    0 ROOT
