@<TRIPOS>MOLECULE
molecule
   39    41     1     0     0
SMALL
bcc


@<TRIPOS>ATOM
      1 C1           0.0000     0.0000     0.0000 ca         1 ILC      -0.233000
      2 C2           1.3880     0.0000     0.0000 ca         1 ILC       0.113100
      3 C8           2.0810     0.0000     1.1990 ca         1 ILC      -0.150000
      4 C9           1.3800     0.0130     2.4040 cp         1 ILC       0.019000
      5 C10          2.1160     0.0190     3.6920 cp         1 ILC      -0.075000
      6 C11         -0.0130     0.0120     2.3950 ca         1 ILC      -0.154000
      7 C12         -0.6960     0.0060     1.1940 ca         1 ILC      -0.095000
      8 C13          1.6590    -0.7510     4.7610 ca         1 ILC      -0.103000
      9 C14          2.3420    -0.7440     5.9580 ca         1 ILC      -0.124000
     10 C16          3.4870     0.0310     6.1010 ca         1 ILC       0.068600
     11 C20          3.2670     0.7910     3.8340 ca         1 ILC      -0.135000
     12 C21          4.0810    -1.0160     8.1520 c          1 ILC       0.667700
     13 C22          4.7040    -0.9570     9.4890 cc         1 ILC      -0.246600
     14 C24          5.3050     0.1960     9.9640 cc         1 ILC      -0.159000
     15 C27          4.7140    -2.0650    10.3470 cd         1 ILC       0.121300
     16 O3           2.0680    -0.0060    -1.1770 os         1 ILC      -0.300900
     17 C4           1.0900    -0.0110    -2.2180 c3         1 ILC       0.107700
     18 N17          4.1790     0.0360     7.3160 ns         1 ILC      -0.485100
     19 C18          3.9460     0.8000     5.0360 ca         1 ILC       0.060900
     20 F19          5.0600     1.5520     5.1770 f          1 ILC      -0.154900
     21 O23          3.4780    -2.0140     7.8060 o          1 ILC      -0.500100
     22 C25          5.8600     0.1930    11.1990 cd         1 ILC      -0.149100
     23 S26          5.5770    -1.4190    11.7680 ss         1 ILC      -0.145800
     24 C28          4.1630    -3.4080    10.1310 c          1 ILC       0.887200
     25 O29          3.5170    -3.6450     9.1300 o          1 ILC      -0.785800
     26 O30          4.3760    -4.3780    11.0430 o          1 ILC      -0.785800
     27 H1          -0.5400    -0.0020    -0.9390 ha         1 ILC       0.133000
     28 H8           3.1640    -0.0000     1.2010 ha         1 ILC       0.149000
     29 H11         -0.5610     0.0190     3.3290 ha         1 ILC       0.138000
     30 H12         -1.7800     0.0050     1.1880 ha         1 ILC       0.125000
     31 H13          0.7660    -1.3550     4.6500 ha         1 ILC       0.137000
     32 H14          1.9870    -1.3430     6.7880 ha         1 ILC       0.200000
     33 H20          3.6240     1.3900     3.0050 ha         1 ILC       0.138000
     34 H24          5.3300     1.0920     9.3540 ha         1 ILC       0.110000
     35 H41          1.5880    -0.0160    -3.1810 h1         1 ILC       0.039700
     36 H42          0.4710     0.8750    -2.1360 h1         1 ILC       0.039700
     37 H43          0.4700    -0.8940    -2.1270 h1         1 ILC       0.039700
     38 HN17         4.7750     0.8060     7.5490 hn         1 ILC       0.323500
     39 H25          6.3640     1.0050    11.7090 h4         1 ILC       0.163000
@<TRIPOS>BOND
     1     1     2 ar
     2     1     7 ar
     3     1    27 1
     4     2     3 ar
     5     2    16 1
     6     3     4 ar
     7     3    28 1
     8     4     5 1
     9     4     6 ar
    10     5     8 ar
    11     5    11 ar
    12     6     7 ar
    13     6    29 1
    14     7    30 1
    15     8     9 ar
    16     8    31 1
    17     9    10 ar
    18     9    32 1
    19    10    18 1
    20    10    19 ar
    21    11    19 ar
    22    11    33 1
    23    12    13 1
    24    12    18 1
    25    12    21 2
    26    13    14 1
    27    13    15 2
    28    14    22 2
    29    14    34 1
    30    15    23 1
    31    15    24 1
    32    16    17 1
    33    17    35 1
    34    17    36 1
    35    17    37 1
    36    18    38 1
    37    19    20 1
    38    22    23 1
    39    22    39 1
    40    24    25 1
    41    24    26 1
@<TRIPOS>SUBSTRUCTURE
     1 ILC         1 TEMP              0 ****  ****    0 ROOT
