@<TRIPOS>MOLECULE
ILF
   39    41     1     0     0
SMALL
bcc


@<TRIPOS>ATOM
      1 C1           0.0000     0.0000     0.0000 ca         1 ILF      -0.088000
      2 C2           1.4670     0.0000     0.0000 ca         1 ILF       0.047100
      3 C8           2.1430     0.0000     1.3180 ca         1 ILF      -0.077000
      4 C9           1.3950     0.0020     2.5640 cp         1 ILF      -0.002000
      5 C10          2.0110     0.0160     3.8760 cp         1 ILF      -0.035000
      6 C11         -0.0660     0.0040     2.4890 ca         1 ILF      -0.079000
      7 C12         -0.7430     0.0030     1.2200 ca         1 ILF      -0.102000
      8 C13          1.5900    -0.9110     4.9510 ca         1 ILF      -0.135500
      9 C14          2.1880    -0.8520     6.2420 ca         1 ILF       0.122900
     10 C16          3.2360     0.1370     6.5290 ca         1 ILF      -0.062400
     11 C20          3.0620     0.9850     4.1820 ca         1 ILF      -0.135500
     12 C21          3.1290     0.6220     8.9850 c          1 ILF       0.651700
     13 C22          3.6950     0.7190    10.3000 cc         1 ILF      -0.220600
     14 C24          2.8290     0.6470    11.4420 cc         1 ILF      -0.080000
     15 C27          5.0700     0.8850    10.6680 cd         1 ILF       0.074300
     16 O3           2.2910    -0.0040    -1.1180 os         1 ILF      -0.310900
     17 C4           2.5210     1.3230    -1.6640 c3         1 ILF       0.729700
     18 F5           1.3690     1.9190    -2.0650 f          1 ILF      -0.196300
     19 F6           3.1420     2.1380    -0.7560 f          1 ILF      -0.196300
     20 F7           3.3280     1.1950    -2.7420 f          1 ILF      -0.196300
     21 F15          1.7590    -1.7150     7.1820 f          1 ILF      -0.103900
     22 N17          3.8230     0.2230     7.8010 ns         1 ILF      -0.094100
     23 C18          3.6640     1.0420     5.4860 ca         1 ILF       0.122900
     24 F19          4.6070     1.9430     5.7020 f          1 ILF      -0.103900
     25 O23          1.8960     0.9060     8.8500 o          1 ILF      -0.701100
     26 C25          3.4580     0.7490    12.6760 cd         1 ILF      -0.141100
     27 S26          5.1090     0.9280    12.3510 ss         1 ILF      -0.123800
     28 C28          6.2610     1.0010     9.9080 c          1 ILF       0.970200
     29 O29          6.2820     1.2270     8.6910 o          1 ILF      -0.856300
     30 O30          7.4490     0.8530    10.5380 o          1 ILF      -0.856300
     31 H1          -0.5310    -0.0000    -0.9440 ha         1 ILF       0.106000
     32 H8           3.2250    -0.0000     1.3540 ha         1 ILF       0.119000
     33 H11         -0.6470     0.0060     3.4040 ha         1 ILF       0.115000
     34 H12         -1.8260     0.0040     1.1890 ha         1 ILF       0.107000
     35 H13          0.8180    -1.6450     4.7530 ha         1 ILF       0.115500
     36 H20          3.3950     1.6710     3.4120 ha         1 ILF       0.115500
     37 H24          1.7570     0.5220    11.3480 ha         1 ILF       0.123000
     38 HN17         4.7930    -0.0110     7.8840 hn         1 ILF       0.230500
     39 H25          2.9870     0.7180    13.6510 h4         1 ILF       0.148000
@<TRIPOS>BOND
     1     1     2 ar  
     2     1     7 ar  
     3     1    31 1   
     4     2     3 ar  
     5     2    16 1   
     6     3     4 ar  
     7     3    32 1   
     8     4     5 1   
     9     4     6 ar  
    10     5     8 ar  
    11     5    11 ar  
    12     6     7 ar  
    13     6    33 1   
    14     7    34 1   
    15     8     9 ar  
    16     8    35 1   
    17     9    10 ar  
    18     9    21 1   
    19    10    22 1   
    20    10    23 ar  
    21    11    23 ar  
    22    11    36 1   
    23    12    13 1   
    24    12    22 1   
    25    12    25 2   
    26    13    14 1   
    27    13    15 2   
    28    14    26 2   
    29    14    37 1   
    30    15    27 1   
    31    15    28 1   
    32    16    17 1   
    33    17    18 1   
    34    17    19 1   
    35    17    20 1   
    36    22    38 1   
    37    23    24 1   
    38    26    27 1   
    39    26    39 1   
    40    28    29 1   
    41    28    30 1   
@<TRIPOS>SUBSTRUCTURE
     1 ILF         1 TEMP              0 ****  ****    0 ROOT
