@<TRIPOS>MOLECULE
ILH
   41    43     1     0     0
SMALL
bcc


@<TRIPOS>ATOM
      1 O1           0.0000     0.0000     0.0000 o          1 ILH      -0.839300
      2 C1           1.2230     0.0000     0.0000 c          1 ILH       0.977800
      3 O2           1.8530     0.0000     1.2180 o          1 ILH      -0.839300
      4 C2           1.9730    -0.0020    -1.2640 ce         1 ILH      -0.100400
      5 C3           3.2600     0.2600    -1.4960 cf         1 ILH      -0.159200
      6 C4           3.5830     0.1390    -2.9490 cf         1 ILH      -0.090000
      7 C5           2.2910    -0.2510    -3.6340 c2         1 ILH      -0.218200
      8 C6           1.2590    -0.3360    -2.5300 c3         1 ILH       0.045000
      9 C7           4.3290     0.6290    -0.5690 c          1 ILH       0.662300
     10 O3           5.3280     1.1930    -1.0200 o          1 ILH      -0.685100
     11 N1           4.2500     0.3540     0.8240 ns         1 ILH      -0.223100
     12 C8           5.2130     0.6670     1.8030 ca         1 ILH       0.016600
     13 C9           4.8810     1.6120     2.8330 ca         1 ILH       0.069400
     14 F1           3.6830     2.1710     2.8770 f          1 ILH      -0.090900
     15 C10          5.8430     1.9830     3.8270 ca         1 ILH       0.087900
     16 F2           5.4790     2.8750     4.7460 f          1 ILH      -0.110400
     17 C11          7.1770     1.4110     3.8160 cp         1 ILH      -0.104000
     18 C12          7.4960     0.4400     2.7790 ca         1 ILH       0.087900
     19 F3           8.6930    -0.1280     2.7090 f          1 ILH      -0.110400
     20 C13          6.5280     0.0820     1.7930 ca         1 ILH       0.069400
     21 F4           6.8750    -0.7890     0.8600 f          1 ILH      -0.090900
     22 C14          8.1570     1.8150     4.8000 cp         1 ILH      -0.001000
     23 C15          7.9360     1.7190     6.2170 ca         1 ILH      -0.061000
     24 C16          8.9490     2.1670     7.1400 ca         1 ILH       0.052100
     25 O4           8.7300     2.0790     8.5100 os         1 ILH      -0.317900
     26 C17          8.2030     3.3190     9.0780 c3         1 ILH       0.729700
     27 F5           7.0030     3.6700     8.5220 f          1 ILH      -0.196967
     28 F6           8.0220     3.1290    10.4050 f          1 ILH      -0.196967
     29 F7           9.0800     4.3540     8.9380 f          1 ILH      -0.196967
     30 C18         10.1860     2.7060     6.6410 ca         1 ILH      -0.099000
     31 C19         10.4120     2.8040     5.2410 ca         1 ILH      -0.100000
     32 C20          9.4130     2.3690     4.3320 ca         1 ILH      -0.070000
     33 H4           4.2500     0.8520    -3.4170 ha         1 ILH       0.124000
     34 H5           2.1360    -0.4290    -4.6920 ha         1 ILH       0.112000
     35 H61          0.4650     0.3800    -2.7080 hc         1 ILH       0.053200
     36 H62          0.8560    -1.3400    -2.4740 hc         1 ILH       0.053200
     37 HN1          3.4230    -0.1110     1.1430 hn         1 ILH       0.304500
     38 H15          7.0140     1.2910     6.5930 ha         1 ILH       0.125000
     39 H18         10.9480     3.0400     7.3350 ha         1 ILH       0.111000
     40 H19         11.3430     3.2130     4.8680 ha         1 ILH       0.107000
     41 H20          9.5940     2.4470     3.2670 ha         1 ILH       0.115000
@<TRIPOS>BOND
     1     1     2 1   
     2     2     3 1   
     3     2     4 1   
     4     4     5 2   
     5     4     8 1   
     6     5     6 1   
     7     5     9 1   
     8     6     7 2   
     9     6    33 1   
    10     7     8 1   
    11     7    34 1   
    12     8    35 1   
    13     8    36 1   
    14     9    10 2   
    15     9    11 1   
    16    11    12 1   
    17    11    37 1   
    18    12    13 ar  
    19    12    20 ar  
    20    13    14 1   
    21    13    15 ar  
    22    15    16 1   
    23    15    17 ar  
    24    17    18 ar  
    25    17    22 1   
    26    18    19 1   
    27    18    20 ar  
    28    20    21 1   
    29    22    23 ar  
    30    22    32 ar  
    31    23    24 ar  
    32    23    38 1   
    33    24    25 1   
    34    24    30 ar  
    35    25    26 1   
    36    26    27 1   
    37    26    28 1   
    38    26    29 1   
    39    30    31 ar  
    40    30    39 1   
    41    31    32 ar  
    42    31    40 1   
    43    32    41 1   
@<TRIPOS>SUBSTRUCTURE
     1 ILH         1 TEMP              0 ****  ****    0 ROOT
