@<TRIPOS>MOLECULE
ILI
   70    67     1     0     0
SMALL
bcc


@<TRIPOS>ATOM
      1 N3          0.2690    1.0380   -1.0900 n2        1 ILI     -0.079000
      2 C4          1.5170    1.1880   -0.5830 c2        1 ILI     -0.699000
      3 C5          1.7460    1.5270    0.7610 c2        1 ILI     -0.077000
      4 C6          0.6510    1.7290    1.6100 c2        1 ILI     -0.113000
      5 C13         1.1730   -5.2770   -1.5560 c1        1 ILI      0.017000
      6 C15        -0.9550   -5.1800   -2.8820 c1        1 ILI      0.230000
      7 C20         2.6570   -7.0920   -1.0720 c2        1 ILI      0.294000
      8 C22         2.8240   -8.6230   -1.0960 c3        1 ILI     -0.051000
      9 C26         6.2910   -8.9950    1.1560 c3        1 ILI     -0.185000
     10 C1         -0.6330    1.5850    1.0930 c2        1 ILI     -0.134000
     11 C2         -0.7710    1.2340   -0.2670 c2        1 ILI     -0.090000
     12 S7          2.8630    0.9830   -1.6720 s6        1 ILI      2.863000
     13 O8          2.7960    2.0110   -2.6320 o         1 ILI     -0.939000
     14 O9          4.0170    0.9600   -0.8580 o         1 ILI     -0.939000
     15 N10         2.6010   -0.4240   -2.3340 n3        1 ILI     -0.958000
     16 C11         5.1930   -2.2630   -0.1220 c2        1 ILI     -0.312000
     17 C12         4.3760   -3.2910   -0.3740 c2        1 ILI     -0.030000
     18 C14        -0.1170   -4.7500   -1.9670 c2        1 ILI     -0.536000
     19 C16         1.4850    0.5440   -5.3670 c2        1 ILI     -0.232500
     20 O17         3.1000   -3.0430   -0.8290 oh        1 ILI     -0.327000
     21 C18         0.4390   -0.2020   -5.0370 c2        1 ILI     -0.232500
     22 N19         1.3880   -6.5870   -1.4630 n         1 ILI     -0.263000
     23 O21         3.5800   -6.3610   -0.6980 o         1 ILI     -0.281000
     24 C23         6.4170   -9.2820   -1.4140 cx        1 ILI     -0.214000
     25 C25         7.6070   -8.4650   -1.0100 cx        1 ILI     -0.214000
     26 N27         2.6740   -9.2130   -2.3860 n         1 ILI     -0.372000
     27 O29         0.3900   -9.3140   -2.2580 o         1 ILI     -0.382000
     28 C30         1.3840  -10.2610   -4.1840 c2        1 ILI     -0.125000
     29 C31         0.3040  -10.7150   -4.9240 c2        1 ILI     -0.078000
     30 C32         0.8400  -11.3120   -6.1190 c2        1 ILI     -0.216000
     31 C33         2.2210  -11.1910   -6.0450 c2        1 ILI      0.106000
     32 O34         2.5860  -10.5430   -4.8560 os        1 ILI     -0.114000
     33 C35         2.4680  -12.9470   -9.7530 c1        1 ILI      0.132000
     34 C36         2.1890  -13.4570  -10.9150 c2        1 ILI     -0.520000
     35 C37         4.5830  -11.4930   -6.8150 c1        1 ILI      0.251000
     36 C38         3.2750  -11.5880   -6.9190 c2        1 ILI     -0.470000
     37 H5          2.7790    1.6260    1.1340 ha        1 ILI      0.174000
     38 H6          0.8080    1.9970    2.6650 ha        1 ILI      0.144000
     39 H13         4.6440   -4.3520   -0.2400 h4        1 ILI      0.135000
     40 H15         2.0840    0.3550   -6.2680 ha        1 ILI      0.117500
     41 H22         3.8680   -8.8390   -0.7130 h1        1 ILI      0.140000
     42 H24         5.7320   -7.4610   -0.2810 hc        1 ILI      0.135000
     43 H261        5.2390   -9.2640    1.4220 hc        1 ILI      0.076000
     44 H262        6.9150   -9.9200    1.2120 hc        1 ILI      0.076000
     45 H263        6.6710   -8.2680    1.9160 hc        1 ILI      0.076000
     46 H1         -1.5220    1.7370    1.7190 ha        1 ILI      0.144000
     47 H2         -1.7720    1.1090   -0.7180 h4        1 ILI      0.160000
     48 H111        4.9000   -1.2140   -0.2640 ha        1 ILI      0.130000
     49 H112        2.0300   -0.5510   -3.1380 hn        1 ILI      0.267000
     50 H12         6.2100   -2.4320    0.2480 ha        1 ILI      0.130000
     51 H14        -0.3110   -3.7700   -1.4700 ha        1 ILI      0.230000
     52 H16         2.9250   -1.2860   -1.9540 hn        1 ILI      0.267000
     53 HO17        2.6690   -3.9030   -1.0090 ho        1 ILI      0.261000
     54 H181        1.8210    1.4030   -4.7630 ha        1 ILI      0.117500
     55 H182        0.1020   -1.0550   -5.6400 ha        1 ILI      0.117500
     56 H183       -0.1680   -0.0080   -4.1410 ha        1 ILI      0.117500
     57 HN19        0.6900   -7.2920   -1.6460 hn        1 ILI      0.222000
     58 H231        2.0670   -9.0600   -0.3810 h1        1 ILI      0.140000
     59 H232        5.8580   -9.0000   -2.3240 hc        1 ILI      0.107250
     60 H251        6.4480  -10.3770   -1.2720 hc        1 ILI      0.107250
     61 H252        8.4850   -8.9780   -0.5780 hc        1 ILI      0.107250
     62 H253        7.8990   -7.5970   -1.6270 hc        1 ILI      0.107250
     63 HN27        3.4920   -9.3810   -2.9250 hn        1 ILI      0.254000
     64 H31        -0.7480  -10.6350   -4.6530 ha        1 ILI      0.182000
     65 H35         0.2650  -11.7670   -6.9200 ha        1 ILI      0.173000
     66 H36         2.0080  -12.8540  -11.8220 ha        1 ILI      0.203000
     67 H37         2.1100  -14.5410  -11.1060 ha        1 ILI      0.203000
     68 H38         2.9190  -12.0750   -7.8810 ha        1 ILI      0.262000
     69 C24         6.3390   -8.3890   -0.2020 cx        1 ILI     -0.177000
     70 C28         1.4380   -9.5750   -2.8920 c2        1 ILI      0.388000
@<TRIPOS>BOND
     1    1    2 1   
     2    1   11 1   
     3    2    3 1   
     4    2   12 1   
     5    3    4 1   
     6    3   37 1   
     7    4   10 1   
     8    4   38 1   
     9    5   18 1   
    10    5   22 1   
    11    6   18 1   
    12    7    8 1   
    13    7   22 1   
    14    7   23 1   
    15    8   26 1   
    16    8   41 1   
    17    8   58 1   
    18    9   43 1   
    19    9   44 1   
    20    9   45 1   
    21    9   69 1   
    22   10   11 1   
    23   10   46 1   
    24   11   47 1   
    25   12   13 1   
    26   12   14 1   
    27   12   15 1   
    28   15   49 1   
    29   15   52 1   
    30   16   17 1   
    31   16   48 1   
    32   16   50 1   
    33   17   20 1   
    34   17   39 1   
    35   18   51 1   
    36   19   21 1   
    37   19   40 1   
    38   19   54 1   
    39   20   53 1   
    40   21   55 1   
    41   21   56 1   
    42   22   57 1   
    43   24   25 1   
    44   24   59 1   
    45   24   60 1   
    46   24   69 1   
    47   25   61 1   
    48   25   62 1   
    49   25   69 1   
    50   26   63 1   
    51   26   70 1   
    52   27   70 1   
    53   28   29 1   
    54   28   32 1   
    55   28   70 1   
    56   29   30 1   
    57   29   64 1   
    58   30   31 1   
    59   30   65 1   
    60   31   32 1   
    61   31   36 1   
    62   33   34 1   
    63   34   66 1   
    64   34   67 1   
    65   35   36 1   
    66   36   68 1   
    67   42   69 1   
@<TRIPOS>SUBSTRUCTURE
     1 ILI         1 TEMP              0 ****  ****    0 ROOT
