@<TRIPOS>MOLECULE
ILL
   24    25     1     0     0
SMALL
bcc


@<TRIPOS>ATOM
      1 C1           0.0000     0.0000     0.0000 ca         1 ILL      -0.113000
      2 C2           1.3780     0.0000     0.0000 ca         1 ILL      -0.021000
      3 C3           2.0870     0.0000     1.1940 ca         1 ILL      -0.053600
      4 C4           1.4220    -0.0010     2.4000 ca         1 ILL      -0.090000
      5 Cl5          3.8230     0.0000     1.1670 cl         1 ILL       0.032600
      6 C6           0.0230    -0.0010     2.4180 ca         1 ILL      -0.130800
      7 C7          -0.6940     0.0000     1.2050 ca         1 ILL      -0.057400
      8 N8          -2.0730    -0.0000     1.2300 ns         1 ILL       0.072900
      9 C9          -2.7430    -0.0000     2.3950 c          1 ILL       0.565700
     10 C10         -2.0730     0.0000     3.6370 cc         1 ILL      -0.107200
     11 C11         -0.7180    -0.0010     3.6800 cd         1 ILL      -0.118400
     12 O12         -3.9630     0.0000     2.3780 o          1 ILL      -0.629500
     13 C13          0.0100    -0.0020     4.9990 c3         1 ILL       0.021000
     14 N14          0.3520    -1.3820     5.3700 nz         1 ILL       0.076400
     15 H1          -0.5420     0.0000    -0.9380 ha         1 ILL       0.133000
     16 H2           1.9140     0.0010    -0.9410 ha         1 ILL       0.133000
     17 H4           1.9790    -0.0010     3.3290 ha         1 ILL       0.094000
     18 H8          -2.5820    -0.0010     0.3680 hn         1 ILL       0.196500
     19 H10         -2.6420     0.0010     4.5580 ha         1 ILL       0.136000
     20 H131        -0.6260     0.4300     5.7630 hx         1 ILL       0.090200
     21 H132         0.9170     0.5830     4.9120 hx         1 ILL       0.090200
     22 H14          1.1650    -1.3800     5.9530 hn         1 ILL       0.226467
     23 H5           0.5370    -1.9130     4.5420 hn         1 ILL       0.226467
     24 H143        -0.4140    -1.7940     5.8660 hn         1 ILL       0.226467
@<TRIPOS>BOND
     1     1     2 ar  
     2     1     7 ar  
     3     1    15 1   
     4     2     3 ar  
     5     2    16 1   
     6     3     4 ar  
     7     3     5 1   
     8     4     6 ar  
     9     4    17 1   
    10     6     7 ar  
    11     6    11 1   
    12     7     8 1   
    13     8     9 1   
    14     8    18 1   
    15     9    10 1   
    16     9    12 2   
    17    10    11 2   
    18    10    19 1   
    19    11    13 1   
    20    13    14 1   
    21    13    20 1   
    22    13    21 1   
    23    14    22 1   
    24    14    23 1   
    25    14    24 1   
@<TRIPOS>SUBSTRUCTURE
     1 ILL         1 TEMP              0 ****  ****    0 ROOT
