@<TRIPOS>MOLECULE
molecule
   24    25     1     0     0
SMALL
bcc


@<TRIPOS>ATOM
      1 C1           0.0000     0.0000     0.0000 ca         1 ILL      -0.149000
      2 C2           1.3780     0.0000     0.0000 ca         1 ILL      -0.050000
      3 C3           2.0870     0.0000     1.1940 ca         1 ILL       0.014400
      4 C4           1.4220    -0.0010     2.4000 ca         1 ILL      -0.109000
      5 Cl5          3.8230     0.0000     1.1670 cl         1 ILL      -0.062400
      6 C6           0.0230    -0.0010     2.4180 ca         1 ILL      -0.142800
      7 C7          -0.6940     0.0000     1.2050 ca         1 ILL       0.104600
      8 N8          -2.0730    -0.0000     1.2300 ns         1 ILL      -0.413100
      9 C9          -2.7430    -0.0000     2.3950 c          1 ILL       0.679700
     10 C10         -2.0730     0.0000     3.6370 cc         1 ILL      -0.144200
     11 C11         -0.7180    -0.0010     3.6800 cd         1 ILL      -0.103400
     12 O12         -3.9630     0.0000     2.3780 o          1 ILL      -0.582500
     13 C13          0.0100    -0.0020     4.9990 c3         1 ILL       0.150000
     14 N14          0.3520    -1.3820     5.3700 nz         1 ILL      -0.811600
     15 H1          -0.5420     0.0000    -0.9380 ha         1 ILL       0.166000
     16 H2           1.9140     0.0010    -0.9410 ha         1 ILL       0.173000
     17 H4           1.9790    -0.0010     3.3290 ha         1 ILL       0.124000
     18 H8          -2.5820    -0.0010     0.3680 hn         1 ILL       0.365500
     19 H10         -2.6420     0.0010     4.5580 ha         1 ILL       0.171000
     20 H131        -0.6260     0.4300     5.7630 hx         1 ILL       0.120200
     21 H132         0.9170     0.5830     4.9120 hx         1 ILL       0.120200
     22 H14          1.1650    -1.3800     5.9530 hn         1 ILL       0.460133
     23 H5           0.5370    -1.9130     4.5420 hn         1 ILL       0.460133
     24 H143        -0.4140    -1.7940     5.8660 hn         1 ILL       0.460133
@<TRIPOS>BOND
     1     1     2 ar
     2     1     7 ar
     3     2     3 ar
     4     3     4 ar
     5     3     5 1
     6     4     6 ar
     7     6     7 ar
     8     6    11 1
     9     7     8 1
    10     8     9 1
    11     9    10 1
    12     9    12 2
    13    10    11 2
    14    11    13 1
    15    13    14 1
    16     1    15 1
    17     2    16 1
    18     4    17 1
    19     8    18 1
    20    10    19 1
    21    13    20 1
    22    13    21 1
    23    14    22 1
    24    14    23 1
    25    24    14 1
@<TRIPOS>SUBSTRUCTURE
     1 ILL         1 TEMP              0 ****  ****    0 ROOT
