@<TRIPOS>MOLECULE
molecule
   27    26     1     0     0
SMALL
bcc


@<TRIPOS>ATOM
      1 N            0.0000     0.0000     0.0000 nz         1 ILO      -0.801600
      2 CA           1.4680     0.0000     0.0000 c3         1 ILO      -0.017500
      3 CB           1.9780     0.0000     1.4420 c3         1 ILO      -0.087400
      4 CG           1.4680     1.2480     2.1640 c3         1 ILO      -0.123400
      5 CD           1.9770     1.2480     3.6060 c3         1 ILO       0.252800
      6 NE           1.4880     2.4420     4.2980 nu         1 ILO      -0.889200
      7 CZ           1.8190     2.6590     5.6090 c2         1 ILO       0.641200
      8 CH1          1.3160     3.8890     6.3210 c3         1 ILO      -0.185400
      9 NH2          2.5630     1.8080     6.2370 n2         1 ILO      -0.904100
     10 C            1.9710    -1.2290    -0.7110 c          1 ILO       0.867600
     11 OA1          3.1440    -1.1950    -1.3630 o          1 ILO      -0.770800
     12 OA2          1.3190    -2.2450    -0.6950 o          1 ILO      -0.770800
     13 HN1         -0.3340    -0.0410     0.9430 hn         1 ILO       0.439800
     14 HN2A        -0.3340     0.8370    -0.4360 hn         1 ILO       0.439800
     15 HCA          1.8290     0.8850    -0.5100 hx         1 ILO       0.103700
     16 HCB1         1.6170    -0.8850     1.9530 hc         1 ILO       0.091700
     17 HCB2         3.0610     0.0000     1.4430 hc         1 ILO       0.091700
     18 HCG1         1.8290     2.1320     1.6540 hc         1 ILO       0.029700
     19 HCG2         0.3850     1.2480     2.1640 hc         1 ILO       0.029700
     20 HCD1         3.0600     1.2490     3.6070 h1         1 ILO       0.062200
     21 HCD2         1.6160     0.3630     4.1160 h1         1 ILO       0.062200
     22 HNE          0.9140     3.1020     3.8110 hn         1 ILO       0.432800
     23 HC11         1.3180     3.7130     7.3900 hc         1 ILO       0.052700
     24 HC12         0.3080     4.1090     5.9930 hc         1 ILO       0.052700
     25 HC13         1.9620     4.7280     6.0920 hc         1 ILO       0.052700
     26 HN2          2.8050     1.9660     7.1950 hn         1 ILO       0.408400
     27 HN3         -0.3340    -0.7950    -0.5080 hn         1 ILO       0.439800
@<TRIPOS>BOND
     1     1     2 1
     2     1    13 1
     3     1    14 1
     4     2     3 1
     5     2    10 1
     6     2    15 1
     7     3     4 1
     8     3    16 1
     9     3    17 1
    10     4     5 1
    11     4    18 1
    12     4    19 1
    13     5     6 1
    14     5    20 1
    15     5    21 1
    16     6     7 1
    17     6    22 1
    18     7     8 1
    19     7     9 2
    20     8    23 1
    21     8    24 1
    22     8    25 1
    23     9    26 1
    24    10    11 1
    25    10    12 1
    26    27     1 1
@<TRIPOS>SUBSTRUCTURE
     1 ILO         1 TEMP              0 ****  ****    0 ROOT
