@<TRIPOS>MOLECULE
ILO
   27    26     1     0     0
SMALL
bcc


@<TRIPOS>ATOM
      1 N            0.0000     0.0000     0.0000 nz         1 ILO       0.051400
      2 CA           1.4680     0.0000     0.0000 c3         1 ILO      -0.199500
      3 CB           1.9780     0.0000     1.4420 c3         1 ILO      -0.016400
      4 CG           1.4680     1.2480     2.1640 c3         1 ILO      -0.055400
      5 CD           1.9770     1.2480     3.6060 c3         1 ILO       0.173800
      6 NE           1.4880     2.4420     4.2980 nu         1 ILO      -0.551200
      7 CZ           1.8190     2.6590     5.6090 c2         1 ILO       0.458200
      8 CH1          1.3160     3.8890     6.3210 c3         1 ILO      -0.014400
      9 NH2          2.5630     1.8080     6.2370 n2         1 ILO      -0.764100
     10 C            1.9710    -1.2290    -0.7110 c          1 ILO       0.952600
     11 OA1          3.1440    -1.1950    -1.3630 o          1 ILO      -0.807800
     12 OA2          1.3190    -2.2450    -0.6950 o          1 ILO      -0.807800
     13 HN1         -0.3340    -0.7960    -0.5060 hn         1 ILO       0.216467
     14 HN2A        -0.3340    -0.0410     0.9430 hn         1 ILO       0.216467
     15 HCA          1.8290     0.8850    -0.5100 hx         1 ILO       0.087700
     16 HCB1         3.0610     0.0000     1.4430 hc         1 ILO       0.057700
     17 HCB2         1.6170    -0.8850     1.9530 hc         1 ILO       0.057700
     18 HCG1         1.8290     2.1320     1.6540 hc         1 ILO       0.008200
     19 HCG2         0.3850     1.2480     2.1640 hc         1 ILO       0.008200
     20 HCD1         3.0600     1.2490     3.6070 h1         1 ILO       0.024200
     21 HCD2         1.6160     0.3630     4.1160 h1         1 ILO       0.024200
     22 HNE          0.9120     3.1010     3.8120 hn         1 ILO       0.290800
     23 HC11         1.6760     4.7740     5.8110 hc         1 ILO       0.016700
     24 HC12         1.6790     3.8880     7.3420 hc         1 ILO       0.016700
     25 HC13         0.2330     3.8870     6.3230 hc         1 ILO       0.016700
     26 HN2          2.8970     0.9910     5.7650 hn         1 ILO       0.324400
     27 HN3         -0.3340     0.8420    -0.4250 hn         1 ILO       0.216467
@<TRIPOS>BOND
     1     1     2 1   
     2     1    13 1   
     3     1    14 1   
     4     1    27 1   
     5     2     3 1   
     6     2    10 1   
     7     2    15 1   
     8     3     4 1   
     9     3    16 1   
    10     3    17 1   
    11     4     5 1   
    12     4    18 1   
    13     4    19 1   
    14     5     6 1   
    15     5    20 1   
    16     5    21 1   
    17     6     7 1   
    18     6    22 1   
    19     7     8 1   
    20     7     9 2   
    21     8    23 1   
    22     8    24 1   
    23     8    25 1   
    24     9    26 1   
    25    10    11 1   
    26    10    12 1   
@<TRIPOS>SUBSTRUCTURE
     1 ILO         1 TEMP              0 ****  ****    0 ROOT
