@<TRIPOS>MOLECULE
molecule
   44    44     1     0     0
SMALL
bcc


@<TRIPOS>ATOM
      1 P            0.0000     0.0000     0.0000 p5         1 ILP       1.183900
      2 O1P          1.4810     0.0000     0.0000 o          1 ILP      -0.910833
      3 O2P         -0.5370     0.0000     1.5180 o          1 ILP      -0.910833
      4 O3P         -0.5360     1.3140    -0.7600 o          1 ILP      -0.910833
      5 O4P         -0.5360    -1.3140    -0.7600 os         1 ILP      -0.594200
      6 C5A         -0.1470    -1.6570    -2.0910 c3         1 ILP       0.239700
      7 C5          -0.8260    -2.9400    -2.4990 ca         1 ILP      -0.139600
      8 N1          -2.2750    -4.7120    -1.9690 nb         1 ILP      -0.724000
      9 C6          -1.6750    -3.5900    -1.6230 ca         1 ILP       0.425200
     10 C2          -2.0930    -5.2600    -3.1540 ca         1 ILP       0.324600
     11 C2A         -2.8020    -6.5440    -3.5000 c3         1 ILP      -0.121400
     12 C3          -1.2590    -4.6630    -4.0890 ca         1 ILP      -0.029200
     13 O3          -1.0750    -5.2310    -5.3100 oh         1 ILP      -0.516100
     14 C4          -0.6110    -3.4780    -3.7570 ca         1 ILP      -0.079300
     15 C4A          0.3030    -2.7960    -4.7430 c3         1 ILP       0.212100
     16 N            1.6720    -3.2980    -4.5690 n7         1 ILP      -0.826200
     17 CA           2.5930    -2.6540    -5.5160 c3         1 ILP       0.056500
     18 CB           3.7940    -3.5700    -5.7630 c3         1 ILP      -0.036700
     19 CG2          4.4440    -3.9310    -4.4260 c3         1 ILP      -0.089100
     20 CG1          3.3250    -4.8470    -6.4630 c3         1 ILP      -0.078400
     21 CD1          4.5400    -5.7010    -6.8330 c3         1 ILP      -0.092100
     22 C            3.0700    -1.3460    -4.9410 c          1 ILP       0.851600
     23 O            2.9830    -1.1410    -3.7520 o          1 ILP      -0.827800
     24 OXT          3.5920    -0.4090    -5.7470 o          1 ILP      -0.827800
     25 H5A1         0.9270    -1.7880    -2.1310 h1         1 ILP       0.064200
     26 H5A2        -0.4390    -0.8630    -2.7680 h1         1 ILP       0.064200
     27 HG          -1.8500    -3.1720    -0.6390 h4         1 ILP       0.074100
     28 H2A1        -3.3200    -6.9170    -2.6250 hc         1 ILP       0.023700
     29 H2A2        -3.5170    -6.3590    -4.2920 hc         1 ILP       0.023700
     30 H2A3        -2.0770    -7.2780    -3.8310 hc         1 ILP       0.023700
     31 HO3         -1.8350    -5.0750    -5.8470 ho         1 ILP       0.382000
     32 H4A1        -0.0330    -3.0050    -5.7510 h1         1 ILP       0.041200
     33 H4A2         0.2860    -1.7270    -4.5710 h1         1 ILP       0.041200
     34 HN2          1.9770    -3.1200    -3.6330 hn         1 ILP       0.390800
     35 HA           2.0800    -2.4720    -6.4520 h1         1 ILP       0.036700
     36 HB           4.5150    -3.0590    -6.3890 hc         1 ILP       0.045700
     37 HG21         3.8380    -4.6700    -3.9170 hc         1 ILP       0.031700
     38 HG22         5.4340    -4.3350    -4.6030 hc         1 ILP       0.031700
     39 HG23         4.5220    -3.0420    -3.8110 hc         1 ILP       0.031700
     40 HG11         2.7790    -4.5870    -7.3610 hc         1 ILP       0.041700
     41 HG12         2.6790    -5.4070    -5.7970 hc         1 ILP       0.041700
     42 HD11         4.2770    -6.3710    -7.6430 hc         1 ILP       0.010700
     43 HD12         4.8510    -6.2800    -5.9720 hc         1 ILP       0.010700
     44 HD13         5.3520    -5.0560    -7.1470 hc         1 ILP       0.010700
@<TRIPOS>BOND
     1     1     2 1
     2     1     3 1
     3     1     4 1
     4     1     5 1
     5     5     6 1
     6     6     7 1
     7     6    25 1
     8     6    26 1
     9     7     9 ar
    10     7    14 ar
    11     8     9 ar
    12     8    10 ar
    13     9    27 1
    14    10    11 1
    15    10    12 ar
    16    11    28 1
    17    11    29 1
    18    11    30 1
    19    12    13 1
    20    12    14 ar
    21    13    31 1
    22    14    15 1
    23    15    16 1
    24    15    32 1
    25    15    33 1
    26    16    17 1
    27    16    34 1
    28    17    18 1
    29    17    22 1
    30    17    35 1
    31    18    19 1
    32    18    20 1
    33    18    36 1
    34    19    37 1
    35    19    38 1
    36    19    39 1
    37    20    21 1
    38    20    40 1
    39    20    41 1
    40    21    42 1
    41    21    43 1
    42    21    44 1
    43    22    23 1
    44    22    24 1
@<TRIPOS>SUBSTRUCTURE
     1 ILP         1 TEMP              0 ****  ****    0 ROOT
