@<TRIPOS>MOLECULE
molecule
   58    59     1     0     0
SMALL
bcc


@<TRIPOS>ATOM
      1 N1           0.0000     0.0000     0.0000 nz         1 ILT      -0.740600
      2 N2           2.0260     0.0000    -1.1290 n2         1 ILT      -0.810100
      3 C1           1.3750     0.0000     0.0000 c2         1 ILT       0.678100
      4 N3           2.0630     0.0000     1.1900 nu         1 ILT      -0.903200
      5 C2           3.5280     0.0010     1.1900 c3         1 ILT       0.159800
      6 C3           4.0310     0.0010     2.6100 c          1 ILT       0.660100
      7 O1           3.2430    -0.0000     3.5330 o          1 ILT      -0.611100
      8 N4           5.3560     0.0010     2.8560 ns         1 ILT      -0.494400
      9 C4           5.8240     0.0000     4.1780 cc         1 ILT       0.405200
     10 N5           5.8960    -0.0000     6.3660 na         1 ILT      -0.133900
     11 C6           7.1690    -0.0090     5.8700 cd         1 ILT       0.367000
     12 C7           5.0500    -0.0000     5.2990 cd         1 ILT      -0.237600
     13 C8           5.5130    -0.0010     7.7800 c3         1 ILT       0.035600
     14 N11          7.1040    -0.0050     4.5540 nc         1 ILT      -0.697000
     15 C9           8.4050    -0.0150     6.6710 c          1 ILT       0.618600
     16 O2           8.3430    -0.0180     7.8860 o          1 ILT      -0.628100
     17 N6           9.6060    -0.0170     6.0580 ns         1 ILT      -0.416100
     18 C10         10.7860    -0.0240     6.8230 cd         1 ILT      -0.035400
     19 C11         10.8640    -0.0270     8.2230 cd         1 ILT      -0.162000
     20 C12         12.2030    -0.0320     8.5540 cc         1 ILT      -0.196900
     21 C13         12.0550    -0.0320     6.3370 cc         1 ILT      -0.152300
     22 N7          12.9240    -0.0320     7.3820 na         1 ILT       0.007900
     23 C14         14.3850    -0.0360     7.2780 c3         1 ILT       0.033600
     24 C15         12.7580    -0.0330     9.9120 c          1 ILT       0.717700
     25 O3          13.9580    -0.1430    10.0780 o          1 ILT      -0.605100
     26 N8          11.9390     0.0890    10.9750 ns         1 ILT      -0.595900
     27 C16         12.5000     0.2020    12.3230 c3         1 ILT       0.139000
     28 C17         11.3640     0.3270    13.3400 c3         1 ILT      -0.138700
     29 C18         11.9420     0.4430    14.7270 c2         1 ILT       0.462200
     30 N9          13.2240     0.4250    14.8960 n2         1 ILT      -0.645100
     31 N10         11.1090     0.5660    15.8080 nz         1 ILT      -0.805600
     32 H1          -0.3340    -0.8610     0.3870 hn         1 ILT       0.482467
     33 H2          -0.3340     0.7650     0.5520 hn         1 ILT       0.482467
     34 H3           3.0270     0.0000    -1.1310 hn         1 ILT       0.474400
     35 H4           1.5630    -0.0040     2.0560 hn         1 ILT       0.471800
     36 H5           3.8900    -0.8830     0.6780 h1         1 ILT       0.081200
     37 H6           3.8890     0.8860     0.6790 h1         1 ILT       0.081200
     38 H7           6.0060     0.0010     2.0950 hn         1 ILT       0.344500
     39 H8           3.9680     0.0060     5.3340 h4         1 ILT       0.220000
     40 H9           5.8870     0.8970     8.2560 h1         1 ILT       0.067700
     41 H10          5.9350    -0.8710     8.2680 h1         1 ILT       0.067700
     42 H11          4.4330    -0.0300     7.8610 h1         1 ILT       0.067700
     43 H12          9.6570    -0.0140     5.0590 hn         1 ILT       0.347500
     44 H13         10.0290    -0.0260     8.9140 ha         1 ILT       0.178000
     45 H14         12.3300    -0.0310     5.2890 h4         1 ILT       0.179000
     46 H15         14.6720    -0.0990     6.2360 h1         1 ILT       0.067700
     47 H16         14.7800     0.8770     7.7070 h1         1 ILT       0.067700
     48 H17         14.7830    -0.8880     7.8150 h1         1 ILT       0.067700
     49 H18         10.9460     0.0890    10.8450 hn         1 ILT       0.322500
     50 H19         13.1330     1.0800    12.3780 h1         1 ILT       0.078700
     51 H20         13.0880    -0.6810    12.5450 h1         1 ILT       0.078700
     52 H21         10.7770     1.2100    13.1180 hc         1 ILT       0.084700
     53 H22         10.7310    -0.5500    13.2840 hc         1 ILT       0.084700
     54 H23         13.6090     0.5020    15.8170 hn         1 ILT       0.440400
     55 H24         11.3050     1.4250    16.2840 hn         1 ILT       0.467467
     56 H25         11.2550    -0.2020    16.4320 hn         1 ILT       0.467467
     57 H131        -0.3340     0.1010    -0.9380 hn         1 ILT       0.482467
     58 H103        10.1570     0.5690    15.4970 hn         1 ILT       0.467467
@<TRIPOS>BOND
     1    30    29 2
     2    29    31 1
     3    29    28 1
     4    28    27 1
     5    27    26 1
     6    25    24 2
     7    26    24 1
     8    24    20 1
     9    23    22 1
    10    20    22 1
    11    20    19 2
    12    22    21 1
    13    19    18 1
    14    21    18 2
    15    18    17 1
    16    17    15 1
    17    16    15 2
    18    15    11 1
    19    11    14 2
    20    11    10 1
    21    14     9 1
    22    13    10 1
    23    10    12 1
    24     9    12 2
    25     9     8 1
    26     8     6 1
    27     6     7 2
    28     6     5 1
    29     5     4 1
    30     4     3 1
    31     3     2 2
    32     3     1 1
    33     1    32 1
    34     1    33 1
    35     2    34 1
    36     4    35 1
    37     5    36 1
    38     5    37 1
    39     8    38 1
    40    12    39 1
    41    13    40 1
    42    13    41 1
    43    13    42 1
    44    17    43 1
    45    19    44 1
    46    21    45 1
    47    23    46 1
    48    23    47 1
    49    23    48 1
    50    26    49 1
    51    27    50 1
    52    27    51 1
    53    28    52 1
    54    28    53 1
    55    30    54 1
    56    31    55 1
    57    31    56 1
    58    57     1 1
    59    58    31 1
@<TRIPOS>SUBSTRUCTURE
     1 ILT         1 TEMP              0 ****  ****    0 ROOT
