@<TRIPOS>MOLECULE
ILT
   58    59     1     0     0
SMALL
bcc


@<TRIPOS>ATOM
      1 N1           0.0000     0.0000     0.0000 nz         1 ILT       0.129400
      2 N2           2.0260     0.0000    -1.1290 n2         1 ILT      -0.625100
      3 C1           1.3750     0.0000     0.0000 c2         1 ILT       0.251100
      4 N3           2.0630     0.0000     1.1900 nu         1 ILT      -0.394200
      5 C2           3.5280     0.0010     1.1900 c3         1 ILT       0.098800
      6 C3           4.0310     0.0010     2.6100 c          1 ILT       0.537100
      7 O1           3.2430    -0.0000     3.5330 o          1 ILT      -0.671100
      8 N4           5.3560     0.0010     2.8560 ns         1 ILT       0.001600
      9 C4           5.8240     0.0000     4.1780 cc         1 ILT       0.227200
     10 N5           5.8960    -0.0000     6.3660 na         1 ILT       0.387100
     11 C6           7.1690    -0.0090     5.8700 cd         1 ILT       0.141000
     12 C7           5.0500    -0.0000     5.2990 cd         1 ILT      -0.417600
     13 C8           5.5130    -0.0010     7.7800 c3         1 ILT      -0.023400
     14 N11          7.1040    -0.0050     4.5540 nc         1 ILT      -0.604000
     15 C9           8.4050    -0.0150     6.6710 c          1 ILT       0.513600
     16 O2           8.3430    -0.0180     7.8860 o          1 ILT      -0.691100
     17 N6           9.6060    -0.0170     6.0580 ns         1 ILT       0.068900
     18 C10         10.7860    -0.0240     6.8230 cc         1 ILT      -0.180400
     19 C11         10.8640    -0.0270     8.2230 cc         1 ILT      -0.139000
     20 C12         12.2030    -0.0320     8.5540 cd         1 ILT      -0.405900
     21 C13         12.0550    -0.0320     6.3370 cd         1 ILT      -0.328300
     22 N7          12.9240    -0.0320     7.3820 na         1 ILT       0.547900
     23 C14         14.3850    -0.0360     7.2780 c3         1 ILT      -0.039400
     24 C15         12.7580    -0.0330     9.9120 c          1 ILT       0.660700
     25 O3          13.9580    -0.1430    10.0780 o          1 ILT      -0.661100
     26 N8          11.9390     0.0890    10.9750 ns         1 ILT      -0.203900
     27 C16         12.5000     0.2020    12.3230 c3         1 ILT       0.053000
     28 C17         11.3640     0.3270    13.3400 c3         1 ILT      -0.089700
     29 C18         11.9420     0.4430    14.7270 c2         1 ILT       0.108200
     30 N9          13.2240     0.4250    14.8960 n2         1 ILT      -0.450100
     31 N10         11.1090     0.5660    15.8080 nz         1 ILT       0.197400
     32 H1          -0.3340     0.4410     0.8340 hn         1 ILT       0.228467
     33 H2          -0.3340    -0.9430    -0.0350 hn         1 ILT       0.228467
     34 H3           1.5260     0.0000    -1.9960 hn         1 ILT       0.352400
     35 H4           1.5630    -0.0110     2.0560 hn         1 ILT       0.325800
     36 H5           3.8900    -0.8830     0.6780 h1         1 ILT       0.056700
     37 H6           3.8890     0.8860     0.6790 h1         1 ILT       0.056700
     38 H7           6.0060    -0.0090     2.0950 hn         1 ILT       0.172500
     39 H8           3.9680     0.0060     5.3340 h4         1 ILT       0.205000
     40 H9           4.4330    -0.0070     7.8610 h1         1 ILT       0.037700
     41 H10          5.9060     0.8860     8.2610 h1         1 ILT       0.037700
     42 H11          5.9160    -0.8830     8.2630 h1         1 ILT       0.037700
     43 H12          9.6570    -0.0150     5.0590 hn         1 ILT       0.179500
     44 H13         10.0290    -0.0260     8.9140 ha         1 ILT       0.166000
     45 H14         12.3300    -0.0310     5.2890 h4         1 ILT       0.157000
     46 H15         14.7830    -0.8880     7.8150 h1         1 ILT       0.039033
     47 H16         14.7800     0.8770     7.7070 h1         1 ILT       0.039033
     48 H17         14.6720    -0.0990     6.2360 h1         1 ILT       0.039033
     49 H18         10.9460     0.0870    10.8450 hn         1 ILT       0.192500
     50 H19         13.0880    -0.6810    12.5450 h1         1 ILT       0.032700
     51 H20         13.1320     1.0800    12.3780 h1         1 ILT       0.032700
     52 H21         10.7770     1.2100    13.1180 hc         1 ILT       0.050700
     53 H22         10.7310    -0.5500    13.2840 hc         1 ILT       0.050700
     54 H23         13.8330     0.3350    14.1080 hn         1 ILT       0.395400
     55 H24         11.6550     0.6420    16.6430 hn         1 ILT       0.220133
     56 H25         10.5180    -0.2390    15.8680 hn         1 ILT       0.220133
     57 H131        -0.3340     0.5070    -0.7950 hn         1 ILT       0.228467
     58 H103        10.5470     1.3880    15.7040 hn         1 ILT       0.220133
@<TRIPOS>BOND
     1     1     3 1   
     2     1    32 1   
     3     1    33 1   
     4     1    57 1   
     5     2     3 2   
     6     2    34 1   
     7     3     4 1   
     8     4     5 1   
     9     4    35 1   
    10     5     6 1   
    11     5    36 1   
    12     5    37 1   
    13     6     7 2   
    14     6     8 1   
    15     8     9 1   
    16     8    38 1   
    17     9    12 2   
    18     9    14 1   
    19    10    11 1   
    20    10    12 1   
    21    10    13 1   
    22    11    14 2   
    23    11    15 1   
    24    12    39 1   
    25    13    40 1   
    26    13    41 1   
    27    13    42 1   
    28    15    16 2   
    29    15    17 1   
    30    17    18 1   
    31    17    43 1   
    32    18    19 1   
    33    18    21 2   
    34    19    20 2   
    35    19    44 1   
    36    20    22 1   
    37    20    24 1   
    38    21    22 1   
    39    21    45 1   
    40    22    23 1   
    41    23    46 1   
    42    23    47 1   
    43    23    48 1   
    44    24    25 2   
    45    24    26 1   
    46    26    27 1   
    47    26    49 1   
    48    27    28 1   
    49    27    50 1   
    50    27    51 1   
    51    28    29 1   
    52    28    52 1   
    53    28    53 1   
    54    29    30 2   
    55    29    31 1   
    56    30    54 1   
    57    31    55 1   
    58    31    56 1   
    59    31    58 1   
@<TRIPOS>SUBSTRUCTURE
     1 ILT         1 TEMP              0 ****  ****    0 ROOT
