@<TRIPOS>MOLECULE
molecule
   33    32     1     0     0
SMALL
bcc


@<TRIPOS>ATOM
      1 CH1          0.0000     0.0000     0.0000 c3         1 ILY      -0.104600
      2 C1           1.5310     0.0000     0.0000 c3         1 ILY       0.158500
      3 CH2          2.0400     0.0000     1.4430 c3         1 ILY      -0.104600
      4 NZ           2.0200    -1.2000    -0.6920 n7         1 ILY      -0.812200
      5 CE           2.0830    -0.9810    -2.1430 c3         1 ILY       0.155800
      6 CD           2.5960    -2.2490    -2.8290 c3         1 ILY      -0.079400
      7 CG           2.6620    -2.0210    -4.3410 c3         1 ILY      -0.101400
      8 CB           3.1740    -3.2890    -5.0260 c3         1 ILY      -0.089400
      9 CA           3.2400    -3.0610    -6.5370 c3         1 ILY      -0.019500
     10 N            1.8820    -2.8570    -7.0610 nz         1 ILY      -0.790600
     11 C            3.8600    -4.2640    -7.2000 c          1 ILY       0.869600
     12 O            5.1930    -4.4180    -7.1990 o          1 ILY      -0.776300
     13 OXT          3.1560    -5.0890    -7.7330 o          1 ILY      -0.776300
     14 H1          -0.3610     0.7850     0.6540 hc         1 ILY       0.038700
     15 H2          -0.3610     0.1740    -1.0060 hc         1 ILY       0.038700
     16 H3          -0.3610    -0.9580     0.3530 hc         1 ILY       0.038700
     17 H4           1.8920     0.8840    -0.5110 h1         1 ILY       0.056700
     18 H5           1.6910    -0.8910     1.9500 hc         1 ILY       0.038700
     19 H6           3.1240     0.0140     1.4440 hc         1 ILY       0.038700
     20 H7           1.6680     0.8770     1.9580 hc         1 ILY       0.038700
     21 H8           2.7550    -0.1580    -2.3560 h1         1 ILY       0.028700
     22 H9           3.5850    -2.4860    -2.4570 hc         1 ILY       0.058200
     23 H10          1.9230    -3.0710    -2.6170 hc         1 ILY       0.058200
     24 H11          3.3340    -1.1990    -4.5530 hc         1 ILY       0.029200
     25 H12          1.6730    -1.7840    -4.7140 hc         1 ILY       0.029200
     26 H13          4.1630    -3.5260    -4.6530 hc         1 ILY       0.086700
     27 H14          2.5010    -4.1110    -4.8140 hc         1 ILY       0.086700
     28 H15          3.8420    -2.1850    -6.7440 hx         1 ILY       0.103700
     29 H16          1.8750    -3.0330    -8.0460 hn         1 ILY       0.438467
     30 H17          1.5960    -1.9140    -6.8880 hn         1 ILY       0.438467
     31 H18          1.4100    -1.9690    -0.4970 hn         1 ILY       0.354800
     32 H19          1.0940    -0.7430    -2.5160 h1         1 ILY       0.028700
     33 HN3          1.2510    -3.4850    -6.6040 hn         1 ILY       0.438467
@<TRIPOS>BOND
     1    10     9 1
     2     9    11 1
     3     9     8 1
     4    11    12 1
     5     8     7 1
     6     7     6 1
     7     6     5 1
     8     3     2 1
     9     5     4 1
    10     2     4 1
    11     2     1 1
    12    11    13 1
    13     1    14 1
    14     1    15 1
    15     1    16 1
    16     2    17 1
    17     3    18 1
    18     3    19 1
    19     3    20 1
    20     5    21 1
    21     6    22 1
    22     6    23 1
    23     7    24 1
    24     7    25 1
    25     8    26 1
    26     8    27 1
    27     9    28 1
    28    10    29 1
    29    10    30 1
    30     4    31 1
    31     5    32 1
    32    33    10 1
@<TRIPOS>SUBSTRUCTURE
     1 ILY         1 TEMP              0 ****  ****    0 ROOT
