@<TRIPOS>MOLECULE
IM1
   81    83     1     0     0
SMALL
bcc


@<TRIPOS>ATOM
      1 C1           0.0000     0.0000     0.0000 c3         1 IM1       0.201800
      2 C2           1.5300     0.0000     0.0000 c3         1 IM1      -0.029767
      3 C3          -0.5100     0.0000     1.4430 c3         1 IM1      -0.029767
      4 C4          -0.5100    -1.2490    -0.7210 c3         1 IM1      -0.029767
      5 O5          -0.4840     1.1850    -0.6840 os         1 IM1      -0.424900
      6 C6          -1.8070     1.4000    -0.8070 c          1 IM1       0.693100
      7 O7          -2.5960     0.5990    -0.3460 o          1 IM1      -0.675000
      8 N8          -2.2560     2.4990    -1.4410 ns         1 IM1      -0.154900
      9 C9          -3.6950     2.7350    -1.5680 c3         1 IM1      -0.001300
     10 C10         -3.9810     4.2320    -1.4270 c3         1 IM1       0.015900
     11 C11         -3.5100     4.7070    -0.0760 ca         1 IM1      -0.097300
     12 C12         -2.2190     5.1740     0.0800 ca         1 IM1      -0.095500
     13 C13         -1.7880     5.6100     1.3200 ca         1 IM1      -0.094000
     14 C14         -2.6480     5.5800     2.4020 ca         1 IM1      -0.099000
     15 C15         -3.9400     5.1140     2.2440 ca         1 IM1      -0.094000
     16 C16         -4.3730     4.6810     1.0050 ca         1 IM1      -0.095500
     17 C17         -4.1730     2.2530    -2.9400 c3         1 IM1       0.169100
     18 O18         -3.5160     3.0020    -3.9630 oh         1 IM1      -0.582800
     19 C19         -3.8420     0.7680    -3.1010 c3         1 IM1      -0.037400
     20 C20         -4.4560     0.2480    -4.4010 c3         1 IM1      -0.105700
     21 C21         -3.7470     0.8930    -5.5930 c3         1 IM1       0.004900
     22 C22         -4.3970     0.4340    -6.8730 ca         1 IM1      -0.098300
     23 C23         -5.5260     1.0780    -7.3450 ca         1 IM1      -0.103000
     24 C24         -6.1220     0.6560    -8.5190 ca         1 IM1      -0.102500
     25 C25         -5.5890    -0.4080    -9.2210 ca         1 IM1      -0.109000
     26 C26         -4.4600    -1.0520    -8.7500 ca         1 IM1      -0.102500
     27 C27         -3.8610    -0.6280    -7.5780 ca         1 IM1      -0.103000
     28 C28         -4.2930    -1.2480    -4.4710 c          1 IM1       0.589100
     29 O29         -3.1840    -1.7350    -4.5310 o          1 IM1      -0.635100
     30 N30         -5.3790    -2.0460    -4.4660 ns         1 IM1      -0.213900
     31 C31         -5.2190    -3.5010    -4.4200 c3         1 IM1       0.023400
     32 C32         -5.0890    -3.9550    -2.9650 c3         1 IM1      -0.063700
     33 C33         -6.3480    -3.5550    -2.1930 c3         1 IM1      -0.002100
     34 C34         -4.9220    -5.4750    -2.9170 c3         1 IM1      -0.002100
     35 C35         -6.4220    -4.1590    -5.0460 cc         1 IM1       0.174800
     36 N36         -7.4890    -3.5150    -5.5680 na         1 IM1       0.251100
     37 C37         -8.3520    -4.4710    -6.0300 cc         1 IM1      -0.449600
     38 C38         -7.7840    -5.6650    -5.7760 cd         1 IM1       0.327200
     39 N39         -6.6040    -5.4440    -5.1780 nd         1 IM1      -0.604000
     40 H1           1.8920     0.8850     0.5100 hc         1 IM1       0.019256
     41 H2           1.8920    -0.8840     0.5110 hc         1 IM1       0.019256
     42 H3           1.8920    -0.0000    -1.0210 hc         1 IM1       0.019256
     43 H4           0.1040    -0.6610     2.0420 hc         1 IM1       0.019256
     44 H5          -1.5370    -0.3430     1.4630 hc         1 IM1       0.019256
     45 H6          -0.4570     1.0050     1.8440 hc         1 IM1       0.019256
     46 H7          -1.5300    -1.4500    -0.4170 hc         1 IM1       0.019256
     47 H8           0.1160    -2.0950    -0.4640 hc         1 IM1       0.019256
     48 H9          -0.4770    -1.0870    -1.7910 hc         1 IM1       0.019256
     49 H10         -1.6060     3.1410    -1.8510 hn         1 IM1       0.183500
     50 H11         -4.2200     2.1920    -0.7920 h1         1 IM1       0.076700
     51 H12         -5.0470     4.4060    -1.5200 hc         1 IM1       0.026200
     52 H13         -3.4570     4.7750    -2.2040 hc         1 IM1       0.026200
     53 H14         -1.5450     5.1990    -0.7670 ha         1 IM1       0.105000
     54 H15         -0.7760     5.9760     1.4430 ha         1 IM1       0.104000
     55 H16         -2.3090     5.9200     3.3730 ha         1 IM1       0.104000
     56 H17         -4.6150     5.0920     3.0920 ha         1 IM1       0.104000
     57 H18         -5.3850     4.3160     0.8810 ha         1 IM1       0.105000
     58 H19         -5.2440     2.3950    -3.0190 h1         1 IM1       0.004700
     59 H20         -4.0710     3.7120    -4.2390 ho         1 IM1       0.391000
     60 H21         -4.2490     0.2150    -2.2630 hc         1 IM1       0.051700
     61 H22         -2.7670     0.6390    -3.1320 hc         1 IM1       0.051700
     62 H23         -5.5090     0.4980    -4.4290 hc         1 IM1       0.019700
     63 H24         -3.8220     1.9710    -5.5170 hc         1 IM1       0.052700
     64 H25         -2.7040     0.6020    -5.5940 hc         1 IM1       0.052700
     65 H26         -5.9430     1.9120    -6.7950 ha         1 IM1       0.113000
     66 H27         -7.0070     1.1600    -8.8890 ha         1 IM1       0.103500
     67 H28         -6.0570    -0.7400   -10.1400 ha         1 IM1       0.103000
     68 H29         -4.0410    -1.8850    -9.3020 ha         1 IM1       0.103500
     69 H30         -2.9760    -1.1320    -7.2090 ha         1 IM1       0.113000
     70 H31         -6.2950    -1.6430    -4.4690 hn         1 IM1       0.167500
     71 H32         -4.3280    -3.7840    -4.9670 h1         1 IM1       0.077700
     72 H33         -4.2240    -3.4820    -2.5150 hc         1 IM1       0.045700
     73 H34         -6.2250    -3.8080    -1.1460 hc         1 IM1       0.008700
     74 H35         -7.2020    -4.0850    -2.5950 hc         1 IM1       0.008700
     75 H36         -6.5070    -2.4880    -2.2890 hc         1 IM1       0.008700
     76 H37         -4.3480    -5.8020    -3.7750 hc         1 IM1       0.008700
     77 H38         -4.4040    -5.7530    -2.0070 hc         1 IM1       0.008700
     78 H39         -5.8980    -5.9460    -2.9340 hc         1 IM1       0.008700
     79 H40         -7.6220    -2.5240    -5.6090 hn         1 IM1       0.119700
     80 H41         -9.3090    -4.2990    -6.5080 h4         1 IM1       0.153000
     81 H42         -8.2050    -6.6340    -6.0160 h4         1 IM1       0.004100
@<TRIPOS>BOND
     1     1     2 1   
     2     1     3 1   
     3     1     4 1   
     4     1     5 1   
     5     2    40 1   
     6     2    41 1   
     7     2    42 1   
     8     3    43 1   
     9     3    44 1   
    10     3    45 1   
    11     4    46 1   
    12     4    47 1   
    13     4    48 1   
    14     5     6 1   
    15     6     7 2   
    16     6     8 1   
    17     8     9 1   
    18     8    49 1   
    19     9    10 1   
    20     9    17 1   
    21     9    50 1   
    22    10    11 1   
    23    10    51 1   
    24    10    52 1   
    25    11    12 ar  
    26    11    16 ar  
    27    12    13 ar  
    28    12    53 1   
    29    13    14 ar  
    30    13    54 1   
    31    14    15 ar  
    32    14    55 1   
    33    15    16 ar  
    34    15    56 1   
    35    16    57 1   
    36    17    18 1   
    37    17    19 1   
    38    17    58 1   
    39    18    59 1   
    40    19    20 1   
    41    19    60 1   
    42    19    61 1   
    43    20    21 1   
    44    20    28 1   
    45    20    62 1   
    46    21    22 1   
    47    21    63 1   
    48    21    64 1   
    49    22    23 ar  
    50    22    27 ar  
    51    23    24 ar  
    52    23    65 1   
    53    24    25 ar  
    54    24    66 1   
    55    25    26 ar  
    56    25    67 1   
    57    26    27 ar  
    58    26    68 1   
    59    27    69 1   
    60    28    29 2   
    61    28    30 1   
    62    30    31 1   
    63    30    70 1   
    64    31    32 1   
    65    31    35 1   
    66    31    71 1   
    67    32    33 1   
    68    32    34 1   
    69    32    72 1   
    70    33    73 1   
    71    33    74 1   
    72    33    75 1   
    73    34    76 1   
    74    34    77 1   
    75    34    78 1   
    76    35    36 1   
    77    35    39 2   
    78    36    37 1   
    79    36    79 1   
    80    37    38 2   
    81    37    80 1   
    82    38    39 1   
    83    38    81 1   
@<TRIPOS>SUBSTRUCTURE
     1 IM1         1 TEMP              0 ****  ****    0 ROOT
