@<TRIPOS>MOLECULE
IM2
   38    38     1     0     0
SMALL
bcc


@<TRIPOS>ATOM
      1 C7           0.0000     0.0000     0.0000 c          1 IM2       0.682900
      2 C2           0.6470     0.5950     3.3370 c2         1 IM2      -0.209600
      3 C6           1.5070     0.0000     0.0000 c3         1 IM2      -0.209700
      4 C5           2.0170     0.0000     1.4420 c3         1 IM2       0.141500
      5 C3           0.7270    -0.7460     3.2480 ce         1 IM2       0.074800
      6 O7          -0.6040     0.9060    -0.5230 o          1 IM2      -0.590100
      7 C61          2.0160    -1.2490    -0.7210 c3         1 IM2       0.202100
      8 O62          1.5400    -2.4170    -0.0470 oh         1 IM2      -0.570800
      9 C62          3.5470    -1.2500    -0.7220 c3         1 IM2      -0.036100
     10 N4           1.5100    -1.1730     2.1650 nu         1 IM2      -0.411000
     11 C31          0.0880    -1.6300     4.1500 c          1 IM2       0.944800
     12 O31         -0.6540    -1.1900     5.0100 o          1 IM2      -0.859800
     13 O32          0.3030    -2.9590     4.0580 o          1 IM2      -0.859800
     14 C22         -1.5040     2.2770     3.5250 c3         1 IM2       0.042700
     15 C23         -2.3470     3.2260     4.3780 c3         1 IM2       0.178800
     16 N24         -3.3660     3.8620     3.5380 nu         1 IM2      -0.545200
     17 C25         -4.2440     4.7590     4.0860 c2         1 IM2       0.508100
     18 N26         -4.1750     5.0430     5.3470 n2         1 IM2      -0.816100
     19 C1           1.4550     1.2070     2.2150 c3         1 IM2       0.047800
     20 H71         -0.5410    -0.8390     0.4210 h4         1 IM2      -0.004800
     21 H61A         1.8680     0.8840    -0.5110 hc         1 IM2       0.049700
     22 H51          3.1000     0.0130     1.4640 h1         1 IM2       0.019700
     23 H61          1.6550    -1.2490    -1.7430 h1         1 IM2      -0.008300
     24 HO6          1.4050    -3.1080    -0.6730 ho         1 IM2       0.386000
     25 H621         3.9070    -1.7930    -1.5870 hc         1 IM2       0.011700
     26 H622         3.9090    -0.2300    -0.7590 hc         1 IM2       0.011700
     27 H623         3.9080    -1.7290     0.1810 hc         1 IM2       0.011700
     28 H41          1.6950    -2.1270     1.9230 hn         1 IM2       0.347800
     29 H221        -1.0200     2.8360     2.7330 h1         1 IM2       0.034200
     30 H222        -2.1420     1.5160     3.0930 h1         1 IM2       0.034200
     31 H231        -1.7090     3.9870     4.8100 h1         1 IM2       0.026700
     32 H232        -2.8300     2.6670     5.1700 h1         1 IM2       0.026700
     33 H241        -3.4210     3.6400     2.5640 hn         1 IM2       0.293800
     34 H25         -4.9970     5.2300     3.4650 h5         1 IM2      -0.014200
     35 H26         -3.4800     4.6080     5.9200 hn         1 IM2       0.330400
     36 H11          0.8170     1.8020     1.5730 hc         1 IM2       0.011700
     37 H12          2.2630     1.8060     2.6170 hc         1 IM2       0.011700
     38 S21         -0.2460     1.4910     4.5630 ss         1 IM2      -0.295700
@<TRIPOS>BOND
     1     1     3 1   
     2     1     6 2   
     3     1    20 1   
     4     2     5 2   
     5     2    19 1   
     6     2    38 1   
     7     3     4 1   
     8     3     7 1   
     9     3    21 1   
    10     4    10 1   
    11     4    19 1   
    12     4    22 1   
    13     5    10 1   
    14     5    11 1   
    15     7     8 1   
    16     7     9 1   
    17     7    23 1   
    18     8    24 1   
    19     9    25 1   
    20     9    26 1   
    21     9    27 1   
    22    10    28 1   
    23    11    12 1   
    24    11    13 1   
    25    14    15 1   
    26    14    29 1   
    27    14    30 1   
    28    14    38 1   
    29    15    16 1   
    30    15    31 1   
    31    15    32 1   
    32    16    17 1   
    33    16    33 1   
    34    17    18 2   
    35    17    34 1   
    36    18    35 1   
    37    19    36 1   
    38    19    37 1   
@<TRIPOS>SUBSTRUCTURE
     1 IM2         1 TEMP              0 ****  ****    0 ROOT
