@<TRIPOS>MOLECULE
IM3
   22    22     1     0     0
SMALL
bcc


@<TRIPOS>ATOM
      1 O            0.0000     0.0000     0.0000 o          1 IM3      -0.876300
      2 C            1.2130     0.0000     0.0000 c          1 IM3       0.872300
      3 OXT          2.0400     0.0000     1.0540 o          1 IM3      -0.876300
      4 CA           2.0150     0.0420    -1.2650 ce         1 IM3       0.347300
      5 N            2.2990     1.2020    -1.7550 n2         1 IM3      -0.718100
      6 CB           2.3970    -1.2660    -1.9130 c3         1 IM3      -0.000400
      7 CG           1.3470    -1.7600    -2.8480 ca         1 IM3      -0.043300
      8 CD2          0.3310    -2.5930    -2.3800 ca         1 IM3      -0.103000
      9 CE2         -0.6520    -3.0550    -3.2540 ca         1 IM3       0.090100
     10 O14         -1.6390    -3.8680    -2.7850 oh         1 IM3      -0.483100
     11 CZ          -0.6190    -2.6830    -4.5990 ca         1 IM3       0.069100
     12 OH          -1.5730    -3.1270    -5.4640 oh         1 IM3      -0.488100
     13 CE1          0.3970    -1.8500    -5.0670 ca         1 IM3      -0.150000
     14 CD1          1.3790    -1.3890    -4.1920 ca         1 IM3      -0.095000
     15 HN           1.9990     2.0310    -1.2820 hn         1 IM3       0.314400
     16 HB1          2.5550    -2.0080    -1.1390 hc         1 IM3       0.017200
     17 HB2          3.3210    -1.1290    -2.4620 hc         1 IM3       0.017200
     18 HD1          2.1680    -0.7420    -4.5570 ha         1 IM3       0.111000
     19 HE1          0.4220    -1.5610    -6.1110 ha         1 IM3       0.100000
     20 HOH         -1.1970    -3.7660    -6.0460 ho         1 IM3       0.380000
     21 H14         -1.2830    -4.7220    -2.6050 ho         1 IM3       0.383000
     22 HD2          0.3200    -2.9020    -1.3420 ha         1 IM3       0.132000
@<TRIPOS>BOND
     1     1     2 1   
     2     2     3 1   
     3     2     4 1   
     4     4     5 2   
     5     4     6 1   
     6     5    15 1   
     7     6     7 1   
     8     6    16 1   
     9     6    17 1   
    10     7     8 ar  
    11     7    14 ar  
    12     8     9 ar  
    13     8    22 1   
    14     9    10 1   
    15     9    11 ar  
    16    10    21 1   
    17    11    12 1   
    18    11    13 ar  
    19    12    20 1   
    20    13    14 ar  
    21    13    19 1   
    22    14    18 1   
@<TRIPOS>SUBSTRUCTURE
     1 IM3         1 TEMP              0 ****  ****    0 ROOT
