@<TRIPOS>MOLECULE
molecule
   27    28     1     0     0
SMALL
bcc


@<TRIPOS>ATOM
      1 C5           0.0000     0.0000     0.0000 ca         1 IM4      -0.076000
      2 C6           1.3850     0.0000     0.0000 ca         1 IM4      -0.247300
      3 C1           2.0600     0.0000     1.2080 ca         1 IM4       0.532300
      4 Cl7          3.7960     0.0010     1.2210 cl         1 IM4      -0.150000
      5 N2           1.3990    -0.0020     2.3490 nb         1 IM4      -0.681000
      6 C3           0.0810    -0.0030     2.3870 ca         1 IM4       0.474200
      7 C4          -0.6590    -0.0020     1.2210 ca         1 IM4      -0.264600
      8 C8          -2.1660     0.0020     1.2730 c3         1 IM4       0.316100
      9 N9          -2.6590    -1.3760     1.2860 nh         1 IM4      -0.771600
     10 C13         -2.9810    -2.1780     0.0950 c3         1 IM4       0.195800
     11 C12         -3.4460    -3.5280     0.6730 c3         1 IM4       0.192800
     12 N11         -3.3360    -3.3470     2.1280 nu         1 IM4      -0.901200
     13 C10         -2.8810    -2.1120     2.3850 c2         1 IM4       0.925100
     14 N14         -2.6710    -1.6510     3.6320 n2         1 IM4      -0.869100
     15 N15         -3.0010    -2.3710     4.6500 no         1 IM4       0.499400
     16 O16         -4.1410    -2.3350     5.0780 o          1 IM4      -0.242000
     17 O17         -2.1720    -3.0860     5.1840 o          1 IM4      -0.242000
     18 H5          -0.5550     0.0000    -0.9300 ha         1 IM4       0.138000
     19 H6           1.9340     0.0020    -0.9340 ha         1 IM4       0.152000
     20 H3          -0.4280    -0.0040     3.3440 h4         1 IM4       0.057100
     21 H8          -2.4950     0.5110     2.1720 h1         1 IM4       0.078200
     22 H8A         -2.5560     0.5180     0.4040 h1         1 IM4       0.078200
     23 H13         -3.8460    -1.7190    -0.3690 h1         1 IM4       0.076700
     24 H7          -2.0490    -2.3610    -0.4240 h1         1 IM4       0.076700
     25 H12         -4.5010    -3.6230     0.4460 h1         1 IM4       0.076700
     26 H9          -2.7040    -4.2650     0.3900 h1         1 IM4       0.076700
     27 H10         -3.5600    -4.0380     2.8170 hn         1 IM4       0.497800
@<TRIPOS>BOND
     1     1     7 ar
     2     1    18 1
     3     2     1 ar
     4     2     3 ar
     5     2    19 1
     6     3     5 ar
     7     4     3 1
     8     5     6 ar
     9     6    20 1
    10     7     6 ar
    11     7     8 1
    12     8     9 1
    13     8    21 1
    14     8    22 1
    15     9    13 1
    16     9    10 1
    17    10    11 1
    18    12    11 1
    19    13    12 1
    20    14    13 2
    21    14    15 1
    22    15    17 1
    23    16    15 1
    24    10    23 1
    25    10    24 1
    26    11    25 1
    27    11    26 1
    28    12    27 1
@<TRIPOS>SUBSTRUCTURE
     1 IM4         1 TEMP              0 ****  ****    0 ROOT
