@<TRIPOS>MOLECULE
molecule
   38    40     1     0     0
SMALL
bcc


@<TRIPOS>ATOM
      1 N1           0.0000     0.0000     0.0000 ns         1 IM5      -0.464400
      2 C2           1.3640     0.0000     0.0000 cc         1 IM5       0.409800
      3 N2           2.0320     0.0020    -1.2010 nz         1 IM5      -0.722600
      4 N3           2.0570     0.0000     1.1140 nd         1 IM5      -0.493100
      5 C4           1.4410    -0.0000     2.3120 cd         1 IM5       0.113400
      6 C5           0.0430    -0.0010     2.3700 cc         1 IM5      -0.177900
      7 C6          -0.6840    -0.0010     1.1650 c          1 IM5       0.736100
      8 O6          -1.9040     0.0050     1.1720 o          1 IM5      -0.581500
      9 N7          -0.3130    -0.0020     3.7030 na         1 IM5      -0.087100
     10 C8           0.8210    -0.0010     4.4570 cc         1 IM5      -0.089300
     11 C9           1.8990    -0.0010     3.6480 cd         1 IM5      -0.086300
     12 N1'          3.8780     1.3630     4.0050 n3         1 IM5      -0.693600
     13 C10          3.3410    -0.0010     4.0910 c3         1 IM5       0.219100
     14 C2'          3.2750     2.2390     5.0430 c3         1 IM5       0.117800
     15 C3'          4.2730     3.4080     5.1930 c3         1 IM5       0.149100
     16 O3'          3.8750     4.5090     4.3730 oh         1 IM5      -0.591800
     17 C4'          5.6250     2.8440     4.7130 c3         1 IM5      -0.080700
     18 C5'          6.6520     2.8880     5.8480 c3         1 IM5       0.144400
     19 O5'          7.9260     2.4720     5.3520 oh         1 IM5      -0.609800
     20 C6'          5.3320     1.3820     4.3130 c3         1 IM5       0.152800
     21 HN1         -0.4970     0.0010    -0.8690 hn         1 IM5       0.347500
     22 HN2          1.7440     0.7940    -1.7410 hn         1 IM5       0.474800
     23 HN2A         3.0170     0.0520    -1.0340 hn         1 IM5       0.474800
     24 H8           0.8520    -0.0030     5.5400 h4         1 IM5       0.201000
     25 H10          3.9160    -0.6570     3.4490 h1         1 IM5       0.054200
     26 H10A         3.4040    -0.3510     5.1140 h1         1 IM5       0.054200
     27 H2'          2.3120     2.6080     4.7110 h1         1 IM5       0.047200
     28 H2'A         3.1800     1.7030     5.9790 h1         1 IM5       0.047200
     29 H3'          4.3410     3.7100     6.2310 h1         1 IM5       0.042700
     30 HO3'         3.5590     5.2100     4.9190 ho         1 IM5       0.406000
     31 H4'          5.9800     3.4020     3.8550 hc         1 IM5       0.098700
     32 H5'          6.3400     2.2240     6.6440 h1         1 IM5       0.025700
     33 H5'A         6.7260     3.9000     6.2290 h1         1 IM5       0.025700
     34 HO5'         8.5960     2.7050     5.9730 ho         1 IM5       0.412000
     35 H6'          5.5500     0.7150     5.1380 h1         1 IM5       0.053200
     36 H6'A         5.9050     1.1100     3.4350 h1         1 IM5       0.053200
     37 HN7         -1.2490    -0.0020     4.0570 hn         1 IM5       0.338700
     38 H23          1.8250    -0.8410    -1.6990 hn         1 IM5       0.474800
@<TRIPOS>BOND
     1     2     1 1
     2     1     7 1
     3     1    21 1
     4     3     2 1
     5     4     2 2
     6     3    22 1
     7     3    23 1
     8     4     5 1
     9    11     5 1
    10     5     6 2
    11     6     9 1
    12     6     7 1
    13     7     8 2
    14    10     9 1
    15    11    10 2
    16    10    24 1
    17    13    11 1
    18    13    12 1
    19    12    14 1
    20    12    20 1
    21    13    25 1
    22    13    26 1
    23    14    15 1
    24    14    27 1
    25    14    28 1
    26    16    15 1
    27    15    17 1
    28    15    29 1
    29    16    30 1
    30    20    17 1
    31    17    18 1
    32    17    31 1
    33    18    19 1
    34    18    32 1
    35    18    33 1
    36    19    34 1
    37    20    35 1
    38    20    36 1
    39     9    37 1
    40    38     3 1
@<TRIPOS>SUBSTRUCTURE
     1 IM5         1 TEMP              0 ****  ****    0 ROOT
