@<TRIPOS>MOLECULE
IM5
   38    40     1     0     0
SMALL
bcc


@<TRIPOS>ATOM
      1 N1           0.0000     0.0000     0.0000 ns         1 IM5       0.008600
      2 C2           1.3640     0.0000     0.0000 cc         1 IM5      -0.071200
      3 N2           2.0320     0.0020    -1.2010 nz         1 IM5       0.230400
      4 N3           2.0570     0.0000     1.1140 nd         1 IM5      -0.284100
      5 C4           1.4410    -0.0000     2.3120 cd         1 IM5       0.020400
      6 C5           0.0430    -0.0010     2.3700 cc         1 IM5      -0.383900
      7 C6          -0.6840    -0.0010     1.1650 c          1 IM5       0.653100
      8 O6          -1.9040     0.0050     1.1720 o          1 IM5      -0.630500
      9 N7          -0.3130    -0.0020     3.7030 na         1 IM5       0.546900
     10 C8           0.8210    -0.0010     4.4570 cc         1 IM5      -0.297300
     11 C9           1.8990    -0.0010     3.6480 cd         1 IM5      -0.055300
     12 N1'          3.8780     1.3630     4.0050 n3         1 IM5      -0.540600
     13 C10          3.3410    -0.0010     4.0910 c3         1 IM5       0.235100
     14 C2'          3.2750     2.2390     5.0430 c3         1 IM5       0.116800
     15 C3'          4.2730     3.4080     5.1930 c3         1 IM5       0.196100
     16 O3'          3.8750     4.5090     4.3730 oh         1 IM5      -0.573800
     17 C4'          5.6250     2.8440     4.7130 c3         1 IM5      -0.079700
     18 C5'          6.6520     2.8880     5.8480 c3         1 IM5       0.232400
     19 O5'          7.9260     2.4720     5.3520 oh         1 IM5      -0.592800
     20 C6'          5.3320     1.3820     4.3130 c3         1 IM5       0.160800
     21 HN1         -0.4970     0.0010    -0.8690 hn         1 IM5       0.186500
     22 HN2          1.7440     0.7940    -1.7410 hn         1 IM5       0.212467
     23 HN2A         3.0170     0.0520    -1.0340 hn         1 IM5       0.212467
     24 H8           0.8520    -0.0030     5.5400 h4         1 IM5       0.171000
     25 H10          3.9160    -0.6570     3.4490 h1         1 IM5       0.022200
     26 H10A         3.4040    -0.3510     5.1140 h1         1 IM5       0.022200
     27 H2'          2.3120     2.6080     4.7110 h1         1 IM5       0.019700
     28 H2'A         3.1800     1.7030     5.9790 h1         1 IM5       0.019700
     29 H3'          4.3410     3.7100     6.2310 h1         1 IM5       0.009700
     30 HO3'         3.5590     5.2100     4.9190 ho         1 IM5       0.392000
     31 H4'          5.9800     3.4020     3.8550 hc         1 IM5       0.067700
     32 H5'          6.3400     2.2240     6.6440 h1         1 IM5      -0.010300
     33 H5'A         6.7260     3.9000     6.2290 h1         1 IM5      -0.010300
     34 HO5'         8.5960     2.7050     5.9730 ho         1 IM5       0.399000
     35 H6'          5.5500     0.7150     5.1380 h1         1 IM5       0.022700
     36 H6'A         5.9050     1.1100     3.4350 h1         1 IM5       0.022700
     37 HN7         -1.2490    -0.0020     4.0570 hn         1 IM5       0.136700
     38 H23          1.8250    -0.8410    -1.6990 hn         1 IM5       0.212467
@<TRIPOS>BOND
     1     1     2 1   
     2     1     7 1   
     3     1    21 1   
     4     2     3 1   
     5     2     4 2   
     6     3    22 1   
     7     3    23 1   
     8     3    38 1   
     9     4     5 1   
    10     5     6 2   
    11     5    11 1   
    12     6     7 1   
    13     6     9 1   
    14     7     8 2   
    15     9    10 1   
    16     9    37 1   
    17    10    11 2   
    18    10    24 1   
    19    11    13 1   
    20    12    13 1   
    21    12    14 1   
    22    12    20 1   
    23    13    25 1   
    24    13    26 1   
    25    14    15 1   
    26    14    27 1   
    27    14    28 1   
    28    15    16 1   
    29    15    17 1   
    30    15    29 1   
    31    16    30 1   
    32    17    18 1   
    33    17    20 1   
    34    17    31 1   
    35    18    19 1   
    36    18    32 1   
    37    18    33 1   
    38    19    34 1   
    39    20    35 1   
    40    20    36 1   
@<TRIPOS>SUBSTRUCTURE
     1 IM5         1 TEMP              0 ****  ****    0 ROOT
