@<TRIPOS>MOLECULE
molecule
   48    51     1     0     0
SMALL
bcc


@<TRIPOS>ATOM
      1 N1           0.0000     0.0000     0.0000 nc         1 IM6      -0.690000
      2 N3           0.6380     0.0010     2.0660 na         1 IM6      -0.119000
      3 C4           1.7610     0.0000     1.2800 cd         1 IM6      -0.263600
      4 C5           1.3410     0.0000     0.0000 cc         1 IM6       0.313200
      5 C6           0.6020     0.0000     3.4700 cc         1 IM6      -0.047200
      6 C7           0.0840     1.0630     4.1340 cd         1 IM6      -0.063300
      7 C10          1.0660    -1.0980     5.5470 cd         1 IM6      -0.077000
      8 C13         -0.2070     1.4860     7.6400 cc         1 IM6       0.220200
      9 C17         -1.4580     3.9850    10.1250 ca         1 IM6      -0.156600
     10 C20         -2.0970     5.2220    12.5190 ca         1 IM6      -0.039300
     11 C21         -2.3720     5.8570    11.3210 ca         1 IM6      -0.138000
     12 C22         -2.0570     5.2470    10.1250 ca         1 IM6      -0.080500
     13 C28         -3.9530     6.1520    13.8750 c3         1 IM6      -0.081433
     14 O47         -1.3480     3.8860     7.7930 o          1 IM6      -0.607100
     15 C16         -1.1120     3.3280     8.8480 c          1 IM6       0.684700
     16 C27         -2.4460     5.8940    13.8220 c3         1 IM6      -0.029700
     17 C36         -2.0420     4.9890    14.9870 c3         1 IM6      -0.081433
     18 C32         -1.6970     7.2250    13.9260 c3         1 IM6      -0.081433
     19 C19         -1.5040     3.9720    12.5270 ca         1 IM6      -0.138000
     20 C18         -1.1840     3.3500    11.3380 ca         1 IM6      -0.080500
     21 N15         -0.5340     2.1100     8.8510 ns         1 IM6      -0.444100
     22 C12         -0.4170     1.9990     6.4010 cd         1 IM6      -0.241100
     23 N8           0.0420     1.0760     5.4990 na         1 IM6       0.049700
     24 N14          0.3680     0.2860     7.5090 nc         1 IM6      -0.343600
     25 C9           0.5240     0.0150     6.2200 cd         1 IM6      -0.017300
     26 C11          1.1000    -1.1070     4.1870 cc         1 IM6      -0.128000
     27 C2          -0.4330     0.0010     1.2320 cd         1 IM6       0.402400
     28 H1           2.7890     0.0000     1.6220 h4         1 IM6       0.179000
     29 H2           1.9760    -0.0000    -0.8770 h4         1 IM6       0.044100
     30 H3          -0.2990     1.9100     3.5770 h4         1 IM6       0.177000
     31 H4           1.4460    -1.9430     6.1070 ha         1 IM6       0.166000
     32 H5          -2.8360     6.8360    11.3230 ha         1 IM6       0.141500
     33 H6          -2.2730     5.7460     9.1880 ha         1 IM6       0.142000
     34 H7          -4.2260     6.4960    14.8660 hc         1 IM6       0.038811
     35 H8          -4.4850     5.2350    13.6520 hc         1 IM6       0.038811
     36 H9          -4.2160     6.9090    13.1450 hc         1 IM6       0.038811
     37 H10         -2.5730     4.0480    14.9140 hc         1 IM6       0.038811
     38 H11         -2.2930     5.4730    15.9240 hc         1 IM6       0.038811
     39 H12         -0.9750     4.8060    14.9500 hc         1 IM6       0.038811
     40 H13         -1.8280     7.6350    14.9200 hc         1 IM6       0.038811
     41 H14         -2.0920     7.9190    13.1940 hc         1 IM6       0.038811
     42 H15         -0.6430     7.0620    13.7380 hc         1 IM6       0.038811
     43 H16         -1.2910     3.4810    13.4690 ha         1 IM6       0.141500
     44 H17         -0.7190     2.3710    11.3450 ha         1 IM6       0.142000
     45 H18         -0.3420     1.6500     9.7190 hn         1 IM6       0.340500
     46 H19         -0.7180     3.0150     6.1750 h4         1 IM6       0.228000
     47 H20          1.4040    -2.0020     3.6580 ha         1 IM6       0.157000
     48 H21         -1.4720     0.0010     1.5370 h5         1 IM6       0.069100
@<TRIPOS>BOND
     1     1     4 1
     2     1    27 2
     3     4     3 2
     4    27     2 1
     5     3     2 1
     6     2     5 1
     7     5    26 1
     8     5     6 2
     9    26     7 2
    10     6    23 1
    11     7    25 1
    12    23    25 1
    13    23    22 1
    14    25    24 2
    15    22     8 2
    16    24     8 1
    17     8    21 1
    18    14    15 2
    19    21    15 1
    20    15     9 1
    21     9    12 ar
    22     9    20 ar
    23    12    11 ar
    24    20    19 ar
    25    11    10 ar
    26    19    10 ar
    27    10    16 1
    28    18    16 1
    29    16    13 1
    30    16    17 1
    31     3    28 1
    32     4    29 1
    33     6    30 1
    34     7    31 1
    35    11    32 1
    36    12    33 1
    37    13    34 1
    38    13    35 1
    39    13    36 1
    40    17    37 1
    41    17    38 1
    42    17    39 1
    43    18    40 1
    44    18    41 1
    45    18    42 1
    46    19    43 1
    47    20    44 1
    48    21    45 1
    49    22    46 1
    50    26    47 1
    51    27    48 1
@<TRIPOS>SUBSTRUCTURE
     1 IM6         1 TEMP              0 ****  ****    0 ROOT
