@<TRIPOS>MOLECULE
molecule
   55    57     1     0     0
SMALL
bcc


@<TRIPOS>ATOM
      1 C2           0.0000     0.0000     0.0000 ca         1 IM8      -0.118000
      2 C3           1.3820     0.0000     0.0000 ca         1 IM8       0.097100
      3 C4           2.0820     0.0000     1.2030 ca         1 IM8      -0.197000
      4 C5           1.4100    -0.0010     2.4060 ca         1 IM8      -0.099000
      5 C6           3.4510     0.0010    -0.8550 c3         1 IM8       0.106700
      6 C7          -2.1120    -0.0030     1.5730 cc         1 IM8      -0.131400
      7 C8          -2.1810    -0.0040     2.9120 cd         1 IM8       0.020400
      8 C            0.0210    -0.0020     2.4260 ca         1 IM8      -0.011400
      9 C1          -0.6890    -0.0080     1.2130 ca         1 IM8      -0.042800
     10 C10         -0.5660    -1.2810     5.5030 ca         1 IM8      -0.181600
     11 C11         -0.3810    -1.2800     6.8880 ca         1 IM8      -0.063500
     12 C12         -0.3270    -2.4750     7.5740 ca         1 IM8      -0.139500
     13 C13         -0.4540    -3.6740     6.8930 ca         1 IM8       0.059400
     14 C14         -0.6390    -3.6820     5.5200 ca         1 IM8      -0.139500
     15 C15         -0.7000    -2.4940     4.8240 ca         1 IM8      -0.063500
     16 C16         -3.4560    -0.0060     3.7130 c3         1 IM8      -0.037900
     17 C17         -3.2770    -0.0030     0.6180 c3         1 IM8      -0.076200
     18 C18         -3.6670     1.4170     0.3010 c          1 IM8       0.651100
     19 N           -0.9140    -0.0040     3.4460 n          1 IM8      -0.264200
     20 O            2.0590     0.0010    -1.1790 os         1 IM8      -0.299900
     21 O1          -0.4180     1.0440     5.3400 o          1 IM8      -0.496100
     22 O2          -3.0580     2.3390     0.8000 o          1 IM8      -0.598100
     23 O3          -4.4770     2.8250    -3.1810 oh         1 IM8      -0.618800
     24 Cl          -0.3830    -5.1740     7.7640 cl         1 IM8      -0.097400
     25 N2          -4.6920     1.6630    -0.5400 ns         1 IM8      -0.578900
     26 C19         -5.0700     3.0440    -0.8480 c3         1 IM8       0.123700
     27 C20         -4.2000     3.5680    -1.9920 c3         1 IM8       0.119400
     28 C21         -6.5410     3.0880    -1.2670 c3         1 IM8      -0.094400
     29 C22         -7.4200     2.6830    -0.0820 c3         1 IM8      -0.093100
     30 H2          -0.5450    -0.0000    -0.9360 ha         1 IM8       0.145000
     31 H4           3.1650     0.0000     1.1930 ha         1 IM8       0.145000
     32 H5           1.9650    -0.0010     3.3360 ha         1 IM8       0.133000
     33 H61          3.6880    -0.8830    -0.2770 h1         1 IM8       0.042033
     34 H62          4.0340     0.0020    -1.7690 h1         1 IM8       0.042033
     35 H63          3.6870     0.8860    -0.2760 h1         1 IM8       0.042033
     36 H11         -0.2820    -0.3420     7.4220 ha         1 IM8       0.158500
     37 H12         -0.1830    -2.4750     8.6480 ha         1 IM8       0.151500
     38 H14         -0.7400    -4.6230     4.9940 ha         1 IM8       0.151500
     39 H15         -0.8450    -2.5020     3.7500 ha         1 IM8       0.158500
     40 H161        -3.2900    -0.5120     4.6570 hc         1 IM8       0.055033
     41 H162        -3.7670     1.0150     3.9010 hc         1 IM8       0.055033
     42 H163        -4.2310    -0.5230     3.1590 hc         1 IM8       0.055033
     43 H171        -4.1160    -0.5150     1.0720 hc         1 IM8       0.064200
     44 H172        -2.9950    -0.5130    -0.2960 hc         1 IM8       0.064200
     45 HO3         -3.9710     3.1760    -3.8960 ho         1 IM8       0.403000
     46 HN2         -5.1650     0.9030    -0.9870 hn         1 IM8       0.317500
     47 H19         -4.9260     3.6630     0.0290 h1         1 IM8       0.086700
     48 H201        -3.1550     3.4550    -1.7320 h1         1 IM8       0.035200
     49 H202        -4.4190     4.6150    -2.1620 h1         1 IM8       0.035200
     50 H211        -6.7040     2.4000    -2.0890 hc         1 IM8       0.055700
     51 H212        -6.7980     4.0920    -1.5810 hc         1 IM8       0.055700
     52 H221        -8.4400     3.0010    -0.2630 hc         1 IM8       0.034700
     53 H222        -7.3940     1.6060     0.0360 hc         1 IM8       0.034700
     54 H223        -7.0500     3.1540     0.8200 hc         1 IM8       0.034700
     55 C9          -0.6270    -0.0060     4.7620 c          1 IM8       0.708700
@<TRIPOS>BOND
     1     1     2 ar
     2     1     9 ar
     3     1    30 1
     4     2     3 ar
     5     2    20 1
     6     3     4 ar
     7     3    31 1
     8     4     8 ar
     9     4    32 1
    10     5    20 1
    11     5    33 1
    12     5    34 1
    13     5    35 1
    14     6     7 2
    15     6     9 1
    16     6    17 1
    17     7    16 1
    18     7    19 1
    19    55    10 1
    20    55    19 1
    21    55    21 2
    22     8     9 ar
    23     8    19 1
    24    10    11 ar
    25    10    15 ar
    26    11    12 ar
    27    11    36 1
    28    12    13 ar
    29    12    37 1
    30    13    14 ar
    31    13    24 1
    32    14    15 ar
    33    14    38 1
    34    15    39 1
    35    16    40 1
    36    16    41 1
    37    16    42 1
    38    17    18 1
    39    17    43 1
    40    17    44 1
    41    18    22 2
    42    18    25 1
    43    23    27 1
    44    23    45 1
    45    25    26 1
    46    25    46 1
    47    26    27 1
    48    26    28 1
    49    26    47 1
    50    27    48 1
    51    27    49 1
    52    28    29 1
    53    28    50 1
    54    28    51 1
    55    29    52 1
    56    29    53 1
    57    29    54 1
@<TRIPOS>SUBSTRUCTURE
     1 IM8         1 TEMP              0 ****  ****    0 ROOT
