@<TRIPOS>MOLECULE
IM9
   61    64     1     0     0
SMALL
bcc


@<TRIPOS>ATOM
      1 C1           0.0000     0.0000     0.0000 c3         1 IM9      -0.012600
      2 C2           1.5320     0.0000     0.0000 c3         1 IM9      -0.111000
      3 C3           2.0570     0.0000     1.4340 c3         1 IM9      -0.012600
      4 N4           2.0400    -1.1460    -0.7640 na         1 IM9       0.350100
      5 C5           1.8590    -2.4520    -0.4890 cc         1 IM9       0.210800
      6 C6           1.0980    -2.9690     0.7090 c3         1 IM9      -0.010400
      7 N7           2.4310    -3.1860    -1.4250 nd         1 IM9      -0.629000
      8 C8           3.0150    -2.3900    -2.3290 cd         1 IM9       0.371200
      9 C9           2.7720    -1.1040    -1.9420 cc         1 IM9      -0.514100
     10 C10          3.2250     0.1120    -2.6420 ca         1 IM9       0.574800
     11 C11          3.4380     0.0680    -4.0390 ca         1 IM9      -0.390600
     12 C12          3.8770     1.2350    -4.6430 ca         1 IM9       0.499200
     13 N13          4.0640     2.3390    -3.9180 nb         1 IM9      -0.713000
     14 C14          3.8200     2.3700    -2.6110 ca         1 IM9       0.714900
     15 N15          4.0510     3.6070    -2.0220 nu         1 IM9      -0.269300
     16 C16          3.6960     4.0950    -0.7660 ca         1 IM9       0.000600
     17 C17          2.8510     3.4500     0.1380 ca         1 IM9      -0.127500
     18 C18          2.5870     4.0580     1.3650 ca         1 IM9      -0.109500
     19 C19          3.1330     5.2910     1.7080 ca         1 IM9      -0.009400
     20 C20          3.9570     5.9440     0.7990 ca         1 IM9      -0.109500
     21 C21          4.2170     5.3380    -0.4240 ca         1 IM9      -0.127500
     22 N22          2.8260     5.9130     2.9420 nh         1 IM9      -0.360000
     23 C23          2.0610     5.0360     3.8360 c3         1 IM9       0.117300
     24 C24          1.6090     5.8550     5.0430 c3         1 IM9       0.054000
     25 N25          2.7920     6.5090     5.6430 n          1 IM9      -0.173800
     26 C26          3.6390     7.3330     4.7650 c3         1 IM9       0.054000
     27 C27          4.0440     6.4250     3.5850 c3         1 IM9       0.117300
     28 C28          3.1010     6.3720     6.9540 c          1 IM9       0.575100
     29 O29          4.0730     6.9620     7.4130 o          1 IM9      -0.617100
     30 C30          2.2470     5.5120     7.8540 c3         1 IM9       0.161400
     31 O31          2.6980     5.5620     9.2190 oh         1 IM9      -0.552800
     32 N32          3.4160     1.2620    -1.9510 nb         1 IM9      -0.708000
     33 H1C1        -0.3610    -0.3820     0.9470 hc         1 IM9       0.017533
     34 H1C2        -0.3610    -0.6290    -0.8050 hc         1 IM9       0.017533
     35 H1C3        -0.3610     1.0110    -0.1420 hc         1 IM9       0.017533
     36 H2           1.8710     0.9070    -0.4850 h1         1 IM9       0.086700
     37 H3C1         3.1120    -0.2470     1.4330 hc         1 IM9       0.017533
     38 H3C2         1.9170     0.9820     1.8700 hc         1 IM9       0.017533
     39 H3C3         1.5150    -0.7350     2.0170 hc         1 IM9       0.017533
     40 H6C1         0.1160    -2.5120     0.7390 hc         1 IM9       0.016700
     41 H6C2         0.9930    -4.0450     0.6330 hc         1 IM9       0.016700
     42 H6C3         1.6390    -2.7230     1.6150 hc         1 IM9       0.016700
     43 H8           3.5620    -2.7060    -3.2090 h4         1 IM9       0.006100
     44 H11          3.2800    -0.8400    -4.6090 ha         1 IM9       0.138000
     45 H12          4.0710     1.2500    -5.7090 h4         1 IM9      -0.017900
     46 H15          4.5570     4.2540    -2.5940 hn         1 IM9       0.288800
     47 H17          2.4140     2.4890    -0.1060 ha         1 IM9       0.120500
     48 H21          4.8590     5.8470    -1.1320 ha         1 IM9       0.120500
     49 H18          1.9380     3.5560     2.0720 ha         1 IM9       0.115000
     50 H20          4.3870     6.9090     1.0390 ha         1 IM9       0.115000
     51 H231         1.1940     4.6500     3.3140 h1         1 IM9       0.026700
     52 H232         2.6880     4.2170     4.1670 h1         1 IM9       0.026700
     53 H271         4.6190     6.9990     2.8680 h1         1 IM9       0.026700
     54 H272         4.6360     5.5960     3.9530 h1         1 IM9       0.026700
     55 H241         1.1480     5.2000     5.7720 h1         1 IM9       0.035700
     56 H242         0.9000     6.6090     4.7240 h1         1 IM9       0.035700
     57 H261         4.5210     7.6610     5.3010 h1         1 IM9       0.035700
     58 H262         3.0770     8.1850     4.4020 h1         1 IM9       0.035700
     59 H301         2.2890     4.4870     7.5060 h1         1 IM9      -0.003800
     60 H302         1.2220     5.8600     7.8070 h1         1 IM9      -0.003800
     61 H31          2.1530     5.0050     9.7500 ho         1 IM9       0.386000
@<TRIPOS>BOND
     1     1     2 1   
     2     1    33 1   
     3     1    34 1   
     4     1    35 1   
     5     2     3 1   
     6     2     4 1   
     7     2    36 1   
     8     3    37 1   
     9     3    38 1   
    10     3    39 1   
    11     4     5 1   
    12     4     9 1   
    13     5     6 1   
    14     5     7 2   
    15     6    40 1   
    16     6    41 1   
    17     6    42 1   
    18     7     8 1   
    19     8     9 2   
    20     8    43 1   
    21     9    10 1   
    22    10    11 ar  
    23    10    32 ar  
    24    11    12 ar  
    25    11    44 1   
    26    12    13 ar  
    27    12    45 1   
    28    13    14 ar  
    29    14    15 1   
    30    14    32 ar  
    31    15    16 1   
    32    15    46 1   
    33    16    17 ar  
    34    16    21 ar  
    35    17    18 ar  
    36    17    47 1   
    37    18    19 ar  
    38    18    49 1   
    39    19    20 ar  
    40    19    22 1   
    41    20    21 ar  
    42    20    50 1   
    43    21    48 1   
    44    22    23 1   
    45    22    27 1   
    46    23    24 1   
    47    23    51 1   
    48    23    52 1   
    49    24    25 1   
    50    24    55 1   
    51    24    56 1   
    52    25    26 1   
    53    25    28 1   
    54    26    27 1   
    55    26    57 1   
    56    26    58 1   
    57    27    53 1   
    58    27    54 1   
    59    28    29 2   
    60    28    30 1   
    61    30    31 1   
    62    30    59 1   
    63    30    60 1   
    64    31    61 1   
@<TRIPOS>SUBSTRUCTURE
     1 IM9         1 TEMP              0 ****  ****    0 ROOT
