@<TRIPOS>MOLECULE
molecule
   61    64     1     0     0
SMALL
bcc


@<TRIPOS>ATOM
      1 C1           0.0000     0.0000     0.0000 c3         1 IM9      -0.107100
      2 C2           1.5320     0.0000     0.0000 c3         1 IM9       0.035000
      3 C3           2.0570     0.0000     1.4340 c3         1 IM9      -0.107100
      4 N4           2.0400    -1.1460    -0.7640 na         1 IM9      -0.151900
      5 C5           1.8590    -2.4520    -0.4890 cc         1 IM9       0.421800
      6 C6           1.0980    -2.9690     0.7090 c3         1 IM9      -0.112400
      7 N7           2.4310    -3.1860    -1.4250 nd         1 IM9      -0.704000
      8 C8           3.0150    -2.3900    -2.3290 cd         1 IM9       0.363200
      9 C9           2.7720    -1.1040    -1.9420 cc         1 IM9      -0.321100
     10 C10          3.2250     0.1120    -2.6420 ca         1 IM9       0.583800
     11 C11          3.4380     0.0680    -4.0390 ca         1 IM9      -0.410600
     12 C12          3.8770     1.2350    -4.6430 ca         1 IM9       0.500200
     13 N13          4.0640     2.3390    -3.9180 nb         1 IM9      -0.806000
     14 C14          3.8200     2.3700    -2.6110 ca         1 IM9       0.938900
     15 N15          4.0510     3.6070    -2.0220 nu         1 IM9      -0.742300
     16 C16          3.6960     4.0950    -0.7660 ca         1 IM9       0.164600
     17 C17          2.8510     3.4500     0.1380 ca         1 IM9      -0.152500
     18 C18          2.5870     4.0580     1.3650 ca         1 IM9      -0.134500
     19 C19          3.1330     5.2910     1.7080 ca         1 IM9       0.073600
     20 C20          3.9570     5.9440     0.7990 ca         1 IM9      -0.134500
     21 C21          4.2170     5.3380    -0.4240 ca         1 IM9      -0.152500
     22 N22          2.8260     5.9130     2.9420 nh         1 IM9      -0.599000
     23 C23          2.0610     5.0360     3.8360 c3         1 IM9       0.146800
     24 C24          1.6090     5.8550     5.0430 c3         1 IM9       0.108500
     25 N25          2.7920     6.5090     5.6430 n          1 IM9      -0.501800
     26 C26          3.6390     7.3330     4.7650 c3         1 IM9       0.108500
     27 C27          4.0440     6.4250     3.5850 c3         1 IM9       0.146800
     28 C28          3.1010     6.3720     6.9540 c          1 IM9       0.658100
     29 O29          4.0730     6.9620     7.4130 o          1 IM9      -0.579100
     30 C30          2.2470     5.5120     7.8540 c3         1 IM9       0.075400
     31 O31          2.6980     5.5620     9.2190 oh         1 IM9      -0.574800
     32 N32          3.4160     1.2620    -1.9510 nb         1 IM9      -0.787000
     33 H1C1        -0.3610    -0.3820     0.9470 hc         1 IM9       0.048033
     34 H1C2        -0.3610    -0.6290    -0.8050 hc         1 IM9       0.048033
     35 H1C3        -0.3610     1.0110    -0.1420 hc         1 IM9       0.048033
     36 H2           1.8710     0.9070    -0.4850 h1         1 IM9       0.103700
     37 H3C1         3.1120    -0.2470     1.4330 hc         1 IM9       0.048033
     38 H3C2         1.9170     0.9820     1.8700 hc         1 IM9       0.048033
     39 H3C3         1.5150    -0.7350     2.0170 hc         1 IM9       0.048033
     40 H6C1         0.1160    -2.5120     0.7390 hc         1 IM9       0.056367
     41 H6C2         0.9930    -4.0450     0.6330 hc         1 IM9       0.056367
     42 H6C3         1.6390    -2.7230     1.6150 hc         1 IM9       0.056367
     43 H8           3.5620    -2.7060    -3.2090 h4         1 IM9       0.047100
     44 H11          3.2800    -0.8400    -4.6090 ha         1 IM9       0.157000
     45 H12          4.0710     1.2500    -5.7090 h4         1 IM9       0.031100
     46 H15          4.5570     4.2540    -2.5940 hn         1 IM9       0.459800
     47 H17          2.4140     2.4890    -0.1060 ha         1 IM9       0.142500
     48 H21          4.8590     5.8470    -1.1320 ha         1 IM9       0.142500
     49 H18          1.9380     3.5560     2.0720 ha         1 IM9       0.136000
     50 H20          4.3870     6.9090     1.0390 ha         1 IM9       0.136000
     51 H231         1.1940     4.6500     3.3140 h1         1 IM9       0.051200
     52 H232         2.6880     4.2170     4.1670 h1         1 IM9       0.051200
     53 H271         4.6190     6.9990     2.8680 h1         1 IM9       0.051200
     54 H272         4.6360     5.5960     3.9530 h1         1 IM9       0.051200
     55 H241         1.1480     5.2000     5.7720 h1         1 IM9       0.065200
     56 H242         0.9000     6.6090     4.7240 h1         1 IM9       0.065200
     57 H261         4.5210     7.6610     5.3010 h1         1 IM9       0.065200
     58 H262         3.0770     8.1850     4.4020 h1         1 IM9       0.065200
     59 H301         2.2890     4.4870     7.5060 h1         1 IM9       0.035700
     60 H302         1.2220     5.8600     7.8070 h1         1 IM9       0.035700
     61 H31          2.1530     5.0050     9.7500 ho         1 IM9       0.404000
@<TRIPOS>BOND
     1     1     2 1
     2     2     3 1
     3     2     4 1
     4     4     5 1
     5     4     9 1
     6     5     6 1
     7     5     7 2
     8     7     8 1
     9     8     9 2
    10     9    10 1
    11    10    11 ar
    12    10    32 ar
    13    11    12 ar
    14    12    13 ar
    15    13    14 ar
    16    14    15 1
    17    14    32 ar
    18    15    16 1
    19    16    17 ar
    20    16    21 ar
    21    17    18 ar
    22    18    19 ar
    23    19    20 ar
    24    19    22 1
    25    20    21 ar
    26    22    23 1
    27    22    27 1
    28    23    24 1
    29    24    25 1
    30    25    26 1
    31    25    28 1
    32    26    27 1
    33    28    29 2
    34    28    30 1
    35    30    31 1
    36     1    33 1
    37     1    34 1
    38     1    35 1
    39     2    36 1
    40     3    37 1
    41     3    38 1
    42     3    39 1
    43     6    40 1
    44     6    41 1
    45     6    42 1
    46     8    43 1
    47    11    44 1
    48    12    45 1
    49    15    46 1
    50    17    47 1
    51    21    48 1
    52    18    49 1
    53    20    50 1
    54    23    51 1
    55    23    52 1
    56    27    53 1
    57    27    54 1
    58    24    55 1
    59    24    56 1
    60    26    57 1
    61    26    58 1
    62    30    59 1
    63    30    60 1
    64    31    61 1
@<TRIPOS>SUBSTRUCTURE
     1 IM9         1 TEMP              0 ****  ****    0 ROOT
