@<TRIPOS>MOLECULE
molecule
   78    82     1     0     0
SMALL
bcc


@<TRIPOS>ATOM
      1 C11          0.0000     0.0000     0.0000 ca         1 IMA       0.104100
      2 C12          1.3930     0.0000     0.0000 ca         1 IMA      -0.174000
      3 C13          2.0940     0.0000     1.1850 ca         1 IMA      -0.117000
      4 C14          1.4120    -0.0020     2.3970 ca         1 IMA      -0.054200
      5 C15          0.0030    -0.0010     2.4040 ca         1 IMA      -0.078800
      6 C16         -0.6970    -0.0010     1.1900 ca         1 IMA      -0.112000
      7 C17         -0.4040    -0.0020     3.7590 cc         1 IMA      -0.143200
      8 N18          1.8280     0.0040     3.7090 na         1 IMA      -0.038400
      9 C19          0.7160    -0.0020     4.5290 cd         1 IMA      -0.134300
     10 C20          3.2210     0.0150     4.1630 c3         1 IMA       0.088600
     11 C21          0.7400    -0.0020     5.9990 c          1 IMA       0.706300
     12 N22         -0.4160     0.0140     6.6920 ns         1 IMA      -0.579900
     13 C23         -0.3960    -0.1070     8.1520 c3         1 IMA       0.155300
     14 C24         -1.8080    -0.0590     8.6790 ca         1 IMA      -0.067300
     15 O27          1.8040    -0.0180     6.5900 o          1 IMA      -0.630100
     16 C28          3.7270     1.4340     4.2030 ca         1 IMA      -0.102300
     17 C31          4.8250     3.2850     3.1400 ca         1 IMA      -0.197900
     18 C32          4.3630     1.9690     3.1030 ca         1 IMA      -0.028000
     19 C33          3.5550     2.1950     5.3450 ca         1 IMA      -0.050000
     20 C34          4.0150     3.4990     5.3900 ca         1 IMA      -0.113000
     21 C35          4.6490     4.0470     4.2940 ca         1 IMA      -0.122000
     22 C36          5.5030     3.8680     1.9600 ce         1 IMA       0.544800
     23 N37          5.9620     5.1670     2.0000 nz         1 IMA      -0.801600
     24 N38          5.6660     3.1530     0.8830 n2         1 IMA      -0.683100
     25 C39         -3.8240    -1.1870     9.3070 ca         1 IMA      -0.107500
     26 C40         -4.3960     0.0260     9.6470 ca         1 IMA      -0.058400
     27 C41         -3.6740     1.1960     9.4970 ca         1 IMA      -0.107500
     28 C42         -2.3790     1.1530     9.0170 ca         1 IMA      -0.085500
     29 C43         -2.5300    -1.2290     8.8230 ca         1 IMA      -0.085500
     30 N44         -5.7040     0.0690    10.1360 n4         1 IMA      -0.433200
     31 C45         -5.7920    -0.7230    11.3690 c3         1 IMA       0.095433
     32 C49         -6.6210    -0.4870     9.1310 c3         1 IMA       0.095433
     33 C53         -6.0760     1.4610    10.4200 c3         1 IMA       0.095433
     34 O1          -0.6770     0.0010    -1.1800 os         1 IMA      -0.282900
     35 C1           0.3050     0.0020    -2.2180 c3         1 IMA       0.166700
     36 C2          -0.3830     0.0020    -3.5590 ca         1 IMA      -0.111300
     37 C3          -0.6980     1.2000    -4.1740 ca         1 IMA      -0.105500
     38 C4          -1.3290     1.2000    -5.4040 ca         1 IMA      -0.126500
     39 C5          -1.6440     0.0040    -6.0190 ca         1 IMA      -0.108000
     40 C6          -1.3290    -1.1940    -5.4060 ca         1 IMA      -0.126500
     41 C7          -0.6940    -1.1940    -4.1770 ca         1 IMA      -0.105500
     42 H12          1.9300     0.0010    -0.9410 ha         1 IMA       0.155000
     43 H13          3.1770    -0.0000     1.1730 ha         1 IMA       0.125000
     44 H16         -1.7800    -0.0010     1.1860 ha         1 IMA       0.153000
     45 H17         -1.4260    -0.0070     4.1190 ha         1 IMA       0.147000
     46 H201         3.2810    -0.4180     5.1540 h1         1 IMA       0.096200
     47 H202         3.8280    -0.5660     3.4790 h1         1 IMA       0.096200
     48 H22         -1.2860     0.1350     6.2120 hn         1 IMA       0.325500
     49 H231         0.0620    -1.0480     8.4310 h1         1 IMA       0.076200
     50 H232         0.1750     0.7120     8.5750 h1         1 IMA       0.076200
     51 H32          4.5770     1.3440     2.2440 ha         1 IMA       0.168000
     52 H33          3.0700     1.7640     6.2130 ha         1 IMA       0.181000
     53 H34          3.8800     4.0900     6.2870 ha         1 IMA       0.158000
     54 H35          5.0580     5.0490     4.3490 ha         1 IMA       0.107000
     55 H371         6.3780     5.4010     1.1200 hn         1 IMA       0.466467
     56 H372         5.1970     5.7860     2.1830 hn         1 IMA       0.466467
     57 H38          6.1240     3.5460     0.0850 hn         1 IMA       0.435400
     58 H39         -4.3890    -2.1030     9.4220 ha         1 IMA       0.154500
     59 H41         -4.1220     2.1460     9.7630 ha         1 IMA       0.154500
     60 H42         -1.8140     2.0700     8.9000 ha         1 IMA       0.170500
     61 H43         -2.0820    -2.1790     8.5560 ha         1 IMA       0.170500
     62 H451        -6.7230    -0.4990    11.8760 hx         1 IMA       0.100700
     63 H452        -5.7590    -1.7780    11.1250 hx         1 IMA       0.100700
     64 H453        -4.9600    -0.4760    12.0170 hx         1 IMA       0.100700
     65 H491        -6.5010    -1.5630     9.0880 hx         1 IMA       0.100700
     66 H492        -6.3970    -0.0600     8.1610 hx         1 IMA       0.100700
     67 H493        -7.6420    -0.2490     9.4030 hx         1 IMA       0.100700
     68 H531        -6.0120     2.0450     9.5090 hx         1 IMA       0.100700
     69 H532        -5.3990     1.8720    11.1600 hx         1 IMA       0.100700
     70 H533        -7.0900     1.4940    10.8000 hx         1 IMA       0.100700
     71 HC11         0.9250    -0.8820    -2.1300 h1         1 IMA       0.042700
     72 HC12         0.9230     0.8870    -2.1300 h1         1 IMA       0.042700
     73 HC3         -0.4510     2.1380    -3.6910 ha         1 IMA       0.130000
     74 HC4         -1.5770     2.1380    -5.8850 ha         1 IMA       0.138000
     75 HC5         -2.1400     0.0040    -6.9820 ha         1 IMA       0.140000
     76 HC6         -1.5740    -2.1320    -5.8890 ha         1 IMA       0.138000
     77 HC7         -0.4460    -2.1330    -3.6960 ha         1 IMA       0.130000
     78 H373         6.6430     5.2580     2.7280 hn         1 IMA       0.466467
@<TRIPOS>BOND
     1     1     2 ar
     2     1     6 ar
     3     1    34 1
     4     2     3 ar
     5     2    42 1
     6     3     4 ar
     7     3    43 1
     8     4     5 ar
     9     4     8 1
    10     5     6 ar
    11     5     7 1
    12     6    44 1
    13     7     9 2
    14     7    45 1
    15     8     9 1
    16     8    10 1
    17     9    11 1
    18    10    16 1
    19    10    46 1
    20    10    47 1
    21    11    12 1
    22    11    15 2
    23    12    13 1
    24    12    48 1
    25    13    14 1
    26    13    49 1
    27    13    50 1
    28    14    28 ar
    29    14    29 ar
    30    16    18 ar
    31    16    19 ar
    32    17    18 ar
    33    17    21 ar
    34    17    22 1
    35    18    51 1
    36    19    20 ar
    37    19    52 1
    38    20    21 ar
    39    20    53 1
    40    21    54 1
    41    22    23 1
    42    22    24 2
    43    23    55 1
    44    23    56 1
    45    24    57 1
    46    25    26 ar
    47    25    29 ar
    48    25    58 1
    49    26    27 ar
    50    26    30 1
    51    27    28 ar
    52    27    59 1
    53    28    60 1
    54    29    61 1
    55    30    31 1
    56    30    32 1
    57    30    33 1
    58    31    62 1
    59    31    63 1
    60    31    64 1
    61    32    65 1
    62    32    66 1
    63    32    67 1
    64    33    68 1
    65    33    69 1
    66    33    70 1
    67    34    35 1
    68    35    36 1
    69    35    71 1
    70    35    72 1
    71    36    37 ar
    72    36    41 ar
    73    37    38 ar
    74    37    73 1
    75    38    39 ar
    76    38    74 1
    77    39    40 ar
    78    39    75 1
    79    40    41 ar
    80    40    76 1
    81    41    77 1
    82    78    23 1
@<TRIPOS>SUBSTRUCTURE
     1 IMA         1 TEMP              0 ****  ****    0 ROOT
