@<TRIPOS>MOLECULE
IMA
   78    82     1     0     0
SMALL
bcc


@<TRIPOS>ATOM
      1 C11          0.0000     0.0000     0.0000 ca         1 IMA       0.122100
      2 C12          1.3930     0.0000     0.0000 ca         1 IMA      -0.172000
      3 C13          2.0940     0.0000     1.1850 ca         1 IMA      -0.081000
      4 C14          1.4120    -0.0020     2.3970 ca         1 IMA      -0.242200
      5 C15          0.0030    -0.0010     2.4040 ca         1 IMA      -0.068800
      6 C16         -0.6970    -0.0010     1.1900 ca         1 IMA      -0.087000
      7 C17         -0.4040    -0.0020     3.7590 cc         1 IMA      -0.121200
      8 N18          1.8280     0.0040     3.7090 na         1 IMA       0.457600
      9 C19          0.7160    -0.0020     4.5290 cd         1 IMA      -0.322300
     10 C20          3.2210     0.0150     4.1630 c3         1 IMA      -0.016400
     11 C21          0.7400    -0.0020     5.9990 c          1 IMA       0.643300
     12 N22         -0.4160     0.0140     6.6920 ns         1 IMA      -0.186900
     13 C23         -0.3960    -0.1070     8.1520 c3         1 IMA       0.099300
     14 C24         -1.8080    -0.0590     8.6790 ca         1 IMA      -0.052300
     15 O27          1.8040    -0.0180     6.5900 o          1 IMA      -0.676100
     16 C28          3.7270     1.4340     4.2030 ca         1 IMA      -0.087300
     17 C31          4.8250     3.2850     3.1400 ca         1 IMA      -0.228900
     18 C32          4.3630     1.9690     3.1030 ca         1 IMA      -0.044000
     19 C33          3.5550     2.1950     5.3450 ca         1 IMA      -0.031000
     20 C34          4.0150     3.4990     5.3900 ca         1 IMA      -0.068000
     21 C35          4.6490     4.0470     4.2940 ca         1 IMA      -0.089000
     22 C36          5.5030     3.8680     1.9600 ce         1 IMA       0.213800
     23 N37          5.9620     5.1670     2.0000 nz         1 IMA       0.189400
     24 N38          5.6660     3.1530     0.8830 n2         1 IMA      -0.484100
     25 C39         -3.8240    -1.1870     9.3070 ca         1 IMA      -0.055500
     26 C40         -4.3960     0.0260     9.6470 ca         1 IMA      -0.280400
     27 C41         -3.6740     1.1960     9.4970 ca         1 IMA      -0.055500
     28 C42         -2.3790     1.1530     9.0170 ca         1 IMA      -0.056500
     29 C43         -2.5300    -1.2290     8.8230 ca         1 IMA      -0.056500
     30 N44         -5.7040     0.0690    10.1360 n4         1 IMA       0.258800
     31 C45         -5.7920    -0.7230    11.3690 c3         1 IMA      -0.002233
     32 C49         -6.6210    -0.4870     9.1310 c3         1 IMA      -0.002233
     33 C53         -6.0760     1.4610    10.4200 c3         1 IMA      -0.002233
     34 O1          -0.6770     0.0010    -1.1800 os         1 IMA      -0.265900
     35 C1           0.3050     0.0020    -2.2180 c3         1 IMA       0.241700
     36 C2          -0.3830     0.0020    -3.5590 ca         1 IMA      -0.133300
     37 C3          -0.6980     1.2000    -4.1740 ca         1 IMA      -0.077500
     38 C4          -1.3290     1.2000    -5.4040 ca         1 IMA      -0.098000
     39 C5          -1.6440     0.0040    -6.0190 ca         1 IMA      -0.078000
     40 C6          -1.3290    -1.1940    -5.4060 ca         1 IMA      -0.098000
     41 C7          -0.6940    -1.1940    -4.1770 ca         1 IMA      -0.077500
     42 H12          1.9300     0.0010    -0.9410 ha         1 IMA       0.139000
     43 H13          3.1770    -0.0000     1.1730 ha         1 IMA       0.090000
     44 H16         -1.7800    -0.0010     1.1860 ha         1 IMA       0.123000
     45 H17         -1.4260    -0.0070     4.1190 ha         1 IMA       0.123000
     46 H201         3.2810    -0.4180     5.1540 h1         1 IMA       0.069200
     47 H202         3.8280    -0.5660     3.4790 h1         1 IMA       0.069200
     48 H22         -1.2860     0.1380     6.2130 hn         1 IMA       0.185500
     49 H231         0.1750     0.7120     8.5750 h1         1 IMA       0.044200
     50 H232         0.0620    -1.0480     8.4310 h1         1 IMA       0.044200
     51 H32          4.5780     1.3440     2.2440 ha         1 IMA       0.116000
     52 H33          3.0730     1.7630     6.2140 ha         1 IMA       0.152000
     53 H34          3.8780     4.0910     6.2870 ha         1 IMA       0.125000
     54 H35          5.0560     5.0490     4.3480 ha         1 IMA       0.086000
     55 H371         6.3780     5.4010     1.1200 hn         1 IMA       0.222800
     56 H372         5.1980     5.7860     2.1830 hn         1 IMA       0.222800
     57 H38          5.3330     2.2100     0.8510 hn         1 IMA       0.379400
     58 H39         -4.3890    -2.1030     9.4220 ha         1 IMA       0.131000
     59 H41         -4.1220     2.1460     9.7630 ha         1 IMA       0.131000
     60 H42         -1.8140     2.0700     8.9000 ha         1 IMA       0.136500
     61 H43         -2.0820    -2.1790     8.5560 ha         1 IMA       0.136500
     62 H451        -4.9450    -0.4960    12.0060 hx         1 IMA       0.074589
     63 H452        -5.7860    -1.7780    11.1230 hx         1 IMA       0.074589
     64 H453        -6.7100    -0.4790    11.8900 hx         1 IMA       0.074589
     65 H491        -6.3980    -0.0580     8.1620 hx         1 IMA       0.074589
     66 H492        -6.4990    -1.5630     9.0860 hx         1 IMA       0.074589
     67 H493        -7.6420    -0.2510     9.4040 hx         1 IMA       0.074589
     68 H531        -7.0900     1.4940    10.7980 hx         1 IMA       0.074589
     69 H532        -5.4000     1.8710    11.1610 hx         1 IMA       0.074589
     70 H533        -6.0110     2.0450     9.5100 hx         1 IMA       0.074589
     71 HC11         0.9230     0.8870    -2.1300 h1         1 IMA       0.008200
     72 HC12         0.9250    -0.8820    -2.1300 h1         1 IMA       0.008200
     73 HC3         -0.4510     2.1380    -3.6910 ha         1 IMA       0.103000
     74 HC4         -1.5770     2.1380    -5.8850 ha         1 IMA       0.109500
     75 HC5         -2.1400     0.0040    -6.9820 ha         1 IMA       0.110000
     76 HC6         -1.5740    -2.1320    -5.8890 ha         1 IMA       0.109500
     77 HC7         -0.4460    -2.1330    -3.6960 ha         1 IMA       0.103000
     78 H373         6.6430     5.2580     2.7280 hn         1 IMA       0.222800
@<TRIPOS>BOND
     1     1     2 ar  
     2     1     6 ar  
     3     1    34 1   
     4     2     3 ar  
     5     2    42 1   
     6     3     4 ar  
     7     3    43 1   
     8     4     5 ar  
     9     4     8 1   
    10     5     6 ar  
    11     5     7 1   
    12     6    44 1   
    13     7     9 2   
    14     7    45 1   
    15     8     9 1   
    16     8    10 1   
    17     9    11 1   
    18    10    16 1   
    19    10    46 1   
    20    10    47 1   
    21    11    12 1   
    22    11    15 2   
    23    12    13 1   
    24    12    48 1   
    25    13    14 1   
    26    13    49 1   
    27    13    50 1   
    28    14    28 ar  
    29    14    29 ar  
    30    16    18 ar  
    31    16    19 ar  
    32    17    18 ar  
    33    17    21 ar  
    34    17    22 1   
    35    18    51 1   
    36    19    20 ar  
    37    19    52 1   
    38    20    21 ar  
    39    20    53 1   
    40    21    54 1   
    41    22    23 1   
    42    22    24 2   
    43    23    55 1   
    44    23    56 1   
    45    23    78 1   
    46    24    57 1   
    47    25    26 ar  
    48    25    29 ar  
    49    25    58 1   
    50    26    27 ar  
    51    26    30 1   
    52    27    28 ar  
    53    27    59 1   
    54    28    60 1   
    55    29    61 1   
    56    30    31 1   
    57    30    32 1   
    58    30    33 1   
    59    31    62 1   
    60    31    63 1   
    61    31    64 1   
    62    32    65 1   
    63    32    66 1   
    64    32    67 1   
    65    33    68 1   
    66    33    69 1   
    67    33    70 1   
    68    34    35 1   
    69    35    36 1   
    70    35    71 1   
    71    35    72 1   
    72    36    37 ar  
    73    36    41 ar  
    74    37    38 ar  
    75    37    73 1   
    76    38    39 ar  
    77    38    74 1   
    78    39    40 ar  
    79    39    75 1   
    80    40    41 ar  
    81    40    76 1   
    82    41    77 1   
@<TRIPOS>SUBSTRUCTURE
     1 IMA         1 TEMP              0 ****  ****    0 ROOT
