@<TRIPOS>MOLECULE
IMB
   28    29     1     0     0
SMALL
bcc


@<TRIPOS>ATOM
      1 N1           0.0000     0.0000     0.0000 nb         1 IMB      -0.572000
      2 C2           1.3190     0.0000     0.0000 ca         1 IMB       0.191200
      3 C3           2.0180     0.0000     1.2270 ca         1 IMB      -0.067300
      4 C4           1.2740     0.0100     2.4320 ca         1 IMB       0.130000
      5 C5          -0.1320     0.0090     2.3460 ca         1 IMB      -0.565300
      6 C6          -0.7150     0.0040     1.1180 ca         1 IMB       0.379200
      7 C9           3.4180     0.0060     1.2830 ca         1 IMB      -0.209000
      8 C10          4.0420     0.0130     2.4960 ca         1 IMB      -0.249000
      9 C11          3.3080     0.0180     3.6810 ca         1 IMB      -0.129000
     10 C12          1.9460     0.0160     3.6610 ca         1 IMB      -0.357000
     11 N17          2.0130    -0.0050    -1.1980 nu         1 IMB       0.008100
     12 C18          1.2850    -0.0110    -2.4670 c3         1 IMB       0.279100
     13 P20          2.2720    -0.8760    -3.7320 p5         1 IMB       0.442700
     14 P21          0.9810     1.7040    -3.0020 p5         1 IMB       0.442700
     15 O23          0.1780     2.4060    -1.9750 o          1 IMB      -0.708500
     16 O25          2.3880     2.4640    -3.1940 o          1 IMB      -0.708500
     17 O26          0.1790     1.6990    -4.3970 o          1 IMB      -0.708500
     18 O28          1.4710    -0.8810    -5.1270 o          1 IMB      -0.708500
     19 O30          3.5650    -0.1790    -3.9080 o          1 IMB      -0.708500
     20 O31          2.5400    -2.3910    -3.2590 o          1 IMB      -0.708500
     21 H5          -0.7390     0.0120     3.2440 ha         1 IMB       0.060000
     22 H6          -1.7970     0.0040     1.0490 h4         1 IMB      -0.090900
     23 H9           4.0010     0.0020     0.3700 ha         1 IMB       0.105000
     24 H10          5.1240     0.0140     2.5400 ha         1 IMB       0.045000
     25 H11          3.8280     0.0230     4.6310 ha         1 IMB       0.021000
     26 H12          1.3870     0.0200     4.5890 ha         1 IMB       0.057000
     27 H17          3.0140    -0.0110    -1.1960 hn         1 IMB       0.272800
     28 H18          0.3380    -0.5220    -2.3370 h1         1 IMB       0.058700
@<TRIPOS>BOND
     1     1     2 ar  
     2     1     6 ar  
     3     2     3 ar  
     4     2    11 1   
     5     3     4 ar  
     6     3     7 ar  
     7     4     5 ar  
     8     4    10 ar  
     9     5     6 ar  
    10     5    21 1   
    11     6    22 1   
    12     7     8 ar  
    13     7    23 1   
    14     8     9 ar  
    15     8    24 1   
    16     9    10 ar  
    17     9    25 1   
    18    10    26 1   
    19    11    12 1   
    20    11    27 1   
    21    12    13 1   
    22    12    14 1   
    23    12    28 1   
    24    13    18 1   
    25    13    19 1   
    26    13    20 1   
    27    14    15 1   
    28    14    16 1   
    29    14    17 1   
@<TRIPOS>SUBSTRUCTURE
     1 IMB         1 TEMP              0 ****  ****    0 ROOT
