@<TRIPOS>MOLECULE
molecule
   10    10     1     0     0
SMALL
bcc


@<TRIPOS>ATOM
      1 N1           0.0000     0.0000     0.0000 na         1 IMD      -0.092100
      2 C2           1.3230     0.0000     0.0000 cc         1 IMD      -0.034600
      3 N3           1.7500     0.0000     1.2520 na         1 IMD      -0.092100
      4 C4           0.6740     0.0110     2.0660 cc         1 IMD      -0.126300
      5 C5          -0.4230     0.0110     1.2810 cd         1 IMD      -0.126300
      6 HN1         -0.5860    -0.0010    -0.8110 hn         1 IMD       0.368700
      7 H2           1.9540    -0.0080    -0.8810 h5         1 IMD       0.257000
      8 HN3          2.7070    -0.0010     1.5460 hn         1 IMD       0.368700
      9 H4           0.6880     0.0170     3.1490 h4         1 IMD       0.238000
     10 H5          -1.4520     0.0170     1.6170 h4         1 IMD       0.238000
@<TRIPOS>BOND
     1     1     2 2
     2     1     5 1
     3     1     6 1
     4     2     3 1
     5     2     7 1
     6     3     4 1
     7     3     8 1
     8     4     5 2
     9     4     9 1
    10     5    10 1
@<TRIPOS>SUBSTRUCTURE
     1 IMD         1 TEMP              0 ****  ****    0 ROOT
