@<TRIPOS>MOLECULE
molecule
   36    38     1     0     0
SMALL
bcc


@<TRIPOS>ATOM
      1 O5'          0.0000     0.0000     0.0000 oh         1 IMG      -0.580800
      2 C5'          1.4300     0.0000     0.0000 c3         1 IMG       0.159400
      3 C4'          1.9390     0.0000     1.4420 c3         1 IMG       0.030500
      4 N4'          1.4850    -1.2230     2.1520 n7         1 IMG      -0.677200
      5 C3'          3.4800    -0.0840     1.4700 c3         1 IMG       0.087100
      6 O3'          4.0450     1.2150     1.6480 oh         1 IMG      -0.530800
      7 C2'          3.8110    -0.9830     2.6820 c3         1 IMG       0.076100
      8 O2'          4.5900    -0.2610     3.6370 oh         1 IMG      -0.532800
      9 C1'          2.4410    -1.3680     3.2790 c3         1 IMG       0.176800
     10 C9           2.4630    -2.7910     3.7710 cc         1 IMG      -0.486300
     11 C8           2.1740    -3.8870     3.0410 cd         1 IMG      -0.119300
     12 N7           2.3000    -4.9970     3.8170 na         1 IMG      -0.061100
     13 C5           2.6810    -4.6100     5.0850 cd         1 IMG      -0.207900
     14 C6           2.9550    -5.3030     6.2790 c          1 IMG       0.727100
     15 O6           2.8720    -6.5190     6.3280 o          1 IMG      -0.558500
     16 N1           3.3190    -4.5930     7.3670 ns         1 IMG      -0.458400
     17 C2           3.4050    -3.2330     7.3080 cd         1 IMG       0.439800
     18 N3           3.1530    -2.5700     6.2040 nc         1 IMG      -0.530100
     19 C4           2.7910    -3.2140     5.0770 cc         1 IMG       0.144400
     20 HO'5        -0.3140     0.4050     0.7920 ho         1 IMG       0.401000
     21 H5'1         1.7910    -0.8850    -0.5100 h1         1 IMG       0.063700
     22 H5'2         1.7910     0.8840    -0.5110 h1         1 IMG       0.063700
     23 H4'          1.6030     0.8850     1.9670 h1         1 IMG       0.074700
     24 HN'4         1.0450    -0.4140     2.5430 hn         1 IMG       0.348800
     25 H3'          3.8460    -0.5380     0.5570 h1         1 IMG       0.067700
     26 HO'3         4.3760     0.8400     0.8490 ho         1 IMG       0.414000
     27 H2'          4.3380    -1.8710     2.3540 h1         1 IMG       0.061700
     28 HO'2         5.0650    -1.0290     3.3660 ho         1 IMG       0.410000
     29 H1'          2.1790    -0.6900     4.0820 h1         1 IMG       0.104700
     30 H8           2.2870    -2.8150     3.1440 h4         1 IMG       0.487000
     31 H7           2.7470    -5.7820     3.3880 hn         1 IMG       0.345700
     32 H1           3.5280    -5.0670     8.2230 hn         1 IMG       0.351500
     33 H21          3.6760    -1.5540     8.2650 hn         1 IMG       0.478467
     34 H22          3.1820    -2.8020     9.1980 hn         1 IMG       0.478467
     35 N2           3.7720    -2.5360     8.4340 nz         1 IMG      -0.728600
     36 H23          4.7240    -2.7440     8.6600 hn         1 IMG       0.478467
@<TRIPOS>BOND
     1     1     2 1
     2     1    20 1
     3     2     3 1
     4     2    21 1
     5     2    22 1
     6     3     4 1
     7     3     5 1
     8     3    23 1
     9     4     9 1
    10     4    24 1
    11     5     6 1
    12     5     7 1
    13     5    25 1
    14     6    26 1
    15     7     8 1
    16     7     9 1
    17     7    27 1
    18     8    28 1
    19     9    10 1
    20     9    29 1
    21    10    11 2
    22    10    19 1
    23    11    12 1
    24    11    30 1
    25    12    13 1
    26    12    31 1
    27    13    14 1
    28    13    19 2
    29    14    15 2
    30    14    16 1
    31    16    17 1
    32    16    32 1
    33    35    17 1
    34    35    33 1
    35    35    34 1
    36    17    18 2
    37    18    19 1
    38    36    35 1
@<TRIPOS>SUBSTRUCTURE
     1 IMG         1 TEMP              0 ****  ****    0 ROOT
