@<TRIPOS>MOLECULE
IMG
   36    39     1     0     0
SMALL
bcc


@<TRIPOS>ATOM
      1 O5'          0.0000     0.0000     0.0000 oh         1 IMG      -0.296000
      2 C5'          1.4300     0.0000     0.0000 c3         1 IMG       0.084000
      3 C4'          1.9390     0.0000     1.4420 c3         1 IMG      -0.153000
      4 N4'          1.4850    -1.2230     2.1520 n7         1 IMG      -0.074000
      5 C3'          3.4800    -0.0840     1.4700 c3         1 IMG       0.023000
      6 O3'          4.0450     1.2150     1.6480 oh         1 IMG      -0.266000
      7 C2'          3.8110    -0.9830     2.6820 c3         1 IMG       0.009000
      8 O2'          4.5900    -0.2610     3.6370 oh         1 IMG      -0.268000
      9 C1'          2.4410    -1.3680     3.2790 c3         1 IMG      -0.008000
     10 C9           2.4630    -2.7910     3.7710 c3         1 IMG      -0.429000
     11 C8           2.1740    -3.8870     3.0410 c2         1 IMG      -0.325000
     12 N7           2.3000    -4.9970     3.8170 nu         1 IMG       0.520000
     13 C5           2.6810    -4.6100     5.0850 c2         1 IMG      -0.333000
     14 C6           2.9550    -5.3030     6.2790 c2         1 IMG       0.278000
     15 O6           2.8720    -6.5190     6.3280 o          1 IMG      -0.331000
     16 N1           3.3190    -4.5930     7.3670 ns         1 IMG       0.178000
     17 C2           3.4050    -3.2330     7.3080 c2         1 IMG      -0.478000
     18 N3           3.1530    -2.5700     6.2040 n2         1 IMG       0.094000
     19 C4           2.7910    -3.2140     5.0770 c2         1 IMG      -0.075000
     20 HO'5        -0.3140     0.4050     0.7920 ho         1 IMG       0.187000
     21 H5'1         1.7910    -0.8850    -0.5100 h1         1 IMG       0.060000
     22 H5'2         1.7910     0.8840    -0.5110 h1         1 IMG       0.060000
     23 H4'          1.6030     0.8850     1.9670 h1         1 IMG       0.090000
     24 HN'4         1.0450    -0.4140     2.5430 hn         1 IMG       0.096000
     25 H3'          3.8460    -0.5380     0.5570 h1         1 IMG       0.072000
     26 HO'3         4.3760     0.8400     0.8490 ho         1 IMG       0.213000
     27 H2'          4.3380    -1.8710     2.3540 h1         1 IMG       0.067000
     28 HO'2         5.0650    -1.0290     3.3660 ho         1 IMG       0.208000
     29 H1'          2.1790    -0.6900     4.0820 h1         1 IMG       0.109000
     30 H8           2.2870    -2.8150     3.1440 DU         1 IMG       0.450000
     31 H7           2.7470    -5.7820     3.3880 hn         1 IMG       0.110000
     32 H1           3.5280    -5.0670     8.2230 hn         1 IMG       0.104000
     33 H21          3.6760    -1.5540     8.2650 hn         1 IMG       0.013000
     34 H22          3.1820    -2.8020     9.1980 hn         1 IMG       0.013000
     35 N2           3.7720    -2.5360     8.4340 nz         1 IMG       0.988000
     36 H23          4.7240    -2.7440     8.6600 hn         1 IMG       0.013000
@<TRIPOS>BOND
     1     1     2 1   
     2     1    20 1   
     3     2     3 1   
     4     2    21 1   
     5     2    22 1   
     6     3     4 1   
     7     3     5 1   
     8     3    23 1   
     9     4     9 1   
    10     4    24 1   
    11     5     6 1   
    12     5     7 1   
    13     5    25 1   
    14     6    26 1   
    15     7     8 1   
    16     7     9 1   
    17     7    27 1   
    18     8    28 1   
    19     9    10 1   
    20     9    29 1   
    21    10    11 1   
    22    10    19 1   
    23    10    30 1   
    24    11    12 1   
    25    11    30 1   
    26    12    13 1   
    27    12    31 1   
    28    13    14 1   
    29    13    19 1   
    30    14    15 1   
    31    14    16 1   
    32    16    17 1   
    33    16    32 1   
    34    17    18 1   
    35    17    35 1   
    36    18    19 1   
    37    33    35 1   
    38    34    35 1   
    39    35    36 1   
@<TRIPOS>SUBSTRUCTURE
     1 IMG         1 TEMP              0 ****  ****    0 ROOT
