@<TRIPOS>MOLECULE
IMH
   33    35     1     0     0
SMALL
bcc


@<TRIPOS>ATOM
      1 O5'          0.0000     0.0000     0.0000 oh         1 IMH      -0.594800
      2 C5'          1.4280     0.0000     0.0000 c3         1 IMH       0.235400
      3 C4'          1.9390     0.0000     1.4420 c3         1 IMH       0.092500
      4 N4'          1.5330    -1.2460     2.1420 n7         1 IMH      -0.575200
      5 C3'          3.4860    -0.0600     1.4740 c3         1 IMH       0.166100
      6 O3'          4.0540     1.2470     1.3670 oh         1 IMH      -0.556800
      7 C2'          3.7780    -0.6730     2.8640 c3         1 IMH       0.162100
      8 O2'          4.0720     0.3600     3.8080 oh         1 IMH      -0.571800
      9 C1'          2.4850    -1.4080     3.2610 c3         1 IMH       0.176700
     10 C9           2.7700    -2.8700     3.4870 cc         1 IMH      -0.278000
     11 C8           2.7290    -3.8440     2.5600 cd         1 IMH      -0.227100
     12 N7           3.0440    -5.0420     3.1320 na         1 IMH       0.400600
     13 C5           3.3000    -4.8660     4.4720 ca         1 IMH      -0.492800
     14 C6           3.6610    -5.7140     5.5210 ca         1 IMH       0.673600
     15 O6           3.8310    -7.0420     5.3090 oh         1 IMH      -0.606300
     16 N1           3.8340    -5.1940     6.7290 nb         1 IMH      -0.716000
     17 C2           3.6730    -3.9020     6.9500 ca         1 IMH       0.638900
     18 N3           3.3340    -3.0610     5.9970 nb         1 IMH      -0.610000
     19 C4           3.1450    -3.4960     4.7490 ca         1 IMH       0.431100
     20 HO'5        -0.3140     0.1570    -0.8750 ho         1 IMH       0.391000
     21 H5'1         1.7880    -0.8840    -0.5110 h1         1 IMH      -0.009300
     22 H5'2         1.7880     0.8840    -0.5110 h1         1 IMH      -0.009300
     23 H4'          1.5830     0.8700     1.9800 h1         1 IMH       0.039700
     24 HN'4         0.6070    -1.1370     2.5050 hn         1 IMH       0.269800
     25 H3'          3.8560    -0.7090     0.6890 h1         1 IMH       0.012700
     26 HO'3         4.8220     1.2130     0.8210 ho         1 IMH       0.387000
     27 H2'          4.6010    -1.3740     2.7970 h1         1 IMH       0.036700
     28 HO'2         3.3900     0.3970     4.4570 ho         1 IMH       0.397000
     29 H1'          2.0730    -0.9650     4.1600 h1         1 IMH       0.030700
     30 H8           2.4830    -3.6990     1.5150 h4         1 IMH       0.158000
     31 HN7          3.0820    -5.9180     2.6490 hn         1 IMH       0.122700
     32 HO6          3.8380    -7.4950     6.1360 ho         1 IMH       0.427000
     33 H2           3.8250    -3.5210     7.9520 h5         1 IMH      -0.000900
@<TRIPOS>BOND
     1     1     2 1   
     2     1    20 1   
     3     2     3 1   
     4     2    21 1   
     5     2    22 1   
     6     3     4 1   
     7     3     5 1   
     8     3    23 1   
     9     4     9 1   
    10     4    24 1   
    11     5     6 1   
    12     5     7 1   
    13     5    25 1   
    14     6    26 1   
    15     7     8 1   
    16     7     9 1   
    17     7    27 1   
    18     8    28 1   
    19     9    10 1   
    20     9    29 1   
    21    10    11 2   
    22    10    19 1   
    23    11    12 1   
    24    11    30 1   
    25    12    13 1   
    26    12    31 1   
    27    13    14 ar  
    28    13    19 ar  
    29    14    15 1   
    30    14    16 ar  
    31    15    32 1   
    32    16    17 ar  
    33    17    18 ar  
    34    17    33 1   
    35    18    19 ar  
@<TRIPOS>SUBSTRUCTURE
     1 IMH         1 TEMP              0 ****  ****    0 ROOT
