@<TRIPOS>MOLECULE
IMI
   32    33     1     0     0
SMALL
bcc


@<TRIPOS>ATOM
      1 C11          0.0000     0.0000     0.0000 c          1 IMI       0.980600
      2 O11          1.2090     0.0000     0.0000 o          1 IMI      -0.905800
      3 O12         -0.6700     0.0000     1.1620 o          1 IMI      -0.905800
      4 C10         -0.7520     0.0010    -1.3040 c3         1 IMI      -0.133400
      5 C9           0.2400     0.0010    -2.4680 c3         1 IMI      -0.015400
      6 C8          -0.5230     0.0010    -3.7930 c3         1 IMI      -0.042400
      7 C7           0.4700     0.0010    -4.9550 c3         1 IMI      -0.024400
      8 C2          -0.2940     0.0020    -6.2790 c3         1 IMI       0.084400
      9 S1          -1.2630    -1.5540    -6.4860 ss         1 IMI      -0.412200
     10 C6          -1.1940    -1.6320    -8.3280 c3         1 IMI       0.074700
     11 C5           0.1770    -0.9840    -8.6100 c3         1 IMI       0.129500
     12 N1           1.1950    -2.0380    -8.7220 nu         1 IMI      -0.558200
     13 C3           2.1730    -1.8090    -7.7920 c2         1 IMI       0.571100
     14 N3           3.2180    -2.5730    -7.6420 n2         1 IMI      -0.858100
     15 N2           1.9350    -0.6940    -7.0380 nu         1 IMI      -0.477200
     16 C4           0.6740    -0.0800    -7.4790 c3         1 IMI       0.128500
     17 H101        -1.3740     0.8860    -1.3610 hc         1 IMI       0.004700
     18 H102        -1.3760    -0.8830    -1.3620 hc         1 IMI       0.004700
     19 H91          0.8640     0.8850    -2.4110 hc         1 IMI       0.022200
     20 H92          0.8630    -0.8840    -2.4100 hc         1 IMI       0.022200
     21 H81         -1.1460    -0.8840    -3.8500 hc         1 IMI       0.016200
     22 H82         -1.1460     0.8850    -3.8500 hc         1 IMI       0.016200
     23 H71          1.0940     0.8850    -4.8970 hc         1 IMI       0.032700
     24 H72          1.0930    -0.8840    -4.8980 hc         1 IMI       0.032700
     25 H2          -0.9370     0.8700    -6.3630 h1         1 IMI       0.055700
     26 H61         -1.9530    -0.9590    -8.7080 h1         1 IMI       0.059700
     27 H62         -1.1200    -2.6770    -8.6040 h1         1 IMI       0.059700
     28 H5           0.1320    -0.4210    -9.5350 h1         1 IMI       0.023700
     29 HN1          1.1770    -2.7980    -9.3730 hn         1 IMI       0.319800
     30 HN3          3.3370    -3.3780    -8.2250 hn         1 IMI       0.320400
     31 HN2          2.5240    -0.3500    -6.3050 hn         1 IMI       0.343800
     32 H4           0.8670     0.9150    -7.8640 h1         1 IMI       0.029700
@<TRIPOS>BOND
     1     1     2 1   
     2     1     3 1   
     3     1     4 1   
     4     4     5 1   
     5     4    17 1   
     6     4    18 1   
     7     5     6 1   
     8     5    19 1   
     9     5    20 1   
    10     6     7 1   
    11     6    21 1   
    12     6    22 1   
    13     7     8 1   
    14     7    23 1   
    15     7    24 1   
    16     8     9 1   
    17     8    16 1   
    18     8    25 1   
    19     9    10 1   
    20    10    11 1   
    21    10    26 1   
    22    10    27 1   
    23    11    12 1   
    24    11    16 1   
    25    11    28 1   
    26    12    13 1   
    27    12    29 1   
    28    13    14 2   
    29    13    15 1   
    30    14    30 1   
    31    15    16 1   
    32    15    31 1   
    33    16    32 1   
@<TRIPOS>SUBSTRUCTURE
     1 IMI         1 TEMP              0 ****  ****    0 ROOT
