@<TRIPOS>MOLECULE
IMJ
   53    58     1     0     0
SMALL
bcc


@<TRIPOS>ATOM
      1 C20          0.0000     0.0000     0.0000 ca         1 IMJ      -0.059000
      2 C21          1.3670     0.0000     0.0000 ca         1 IMJ      -0.126000
      3 C22          2.0710     0.0000     1.1970 ca         1 IMJ      -0.089000
      4 C23          1.4070     0.0010     2.4030 ca         1 IMJ      -0.099000
      5 C24          0.0150     0.0020     2.4260 ca         1 IMJ      -0.167000
      6 C25         -0.6940     0.0010     1.2110 ca         1 IMJ      -0.074000
      7 N26         -0.9160     0.0030     3.4400 na         1 IMJ       0.310000
      8 C27         -2.1780     0.0020     2.9120 c2         1 IMJ      -0.166000
      9 C28         -2.1140     0.0020     1.5710 c2         1 IMJ      -0.217000
     10 C29         -0.6020     0.0030     4.8710 c3         1 IMJ      -0.111000
     11 C30         -3.4520     0.0030     3.7180 c3         1 IMJ      -0.045000
     12 C31         -3.2800     0.0010     0.6180 c3         1 IMJ       0.037000
     13 N32         -3.5830     1.3780     0.2160 n3         1 IMJ      -0.026000
     14 C33         -2.8500     1.9950    -0.8910 c3         1 IMJ      -0.076000
     15 C34         -4.5360     2.0750     0.8650 c3         1 IMJ       0.366000
     16 O35         -5.1460     1.5620     1.7850 o          1 IMJ      -0.451000
     17 C36         -4.8390     3.4490     0.4640 c2         1 IMJ      -0.165000
     18 C37         -5.7920     4.1470     1.1140 c2         1 IMJ       0.021000
     19 C38         -6.0960     5.5280     0.7110 c3         1 IMJ      -0.079000
     20 C39         -7.0880     6.2660     1.3780 c2         1 IMJ      -0.101000
     21 C40         -7.3330     7.5480     0.9670 c2         1 IMJ      -0.130000
     22 C41         -8.3870     8.3750     1.6550 c3         1 IMJ      -0.044000
     23 C42         -7.9530     9.8410     1.6700 c3         1 IMJ      -0.123000
     24 C43         -7.5010    10.2530     0.2940 c2         1 IMJ       0.207000
     25 N44         -6.8580     9.3870    -0.5090 ns         1 IMJ       0.145000
     26 C45         -6.6050     8.0850    -0.0920 c2         1 IMJ      -0.085000
     27 N46         -5.6740     7.3650    -0.7060 n2         1 IMJ      -0.046000
     28 C47         -5.3990     6.1320    -0.3410 c2         1 IMJ      -0.087000
     29 O48         -7.7210    11.3800    -0.0950 o          1 IMJ      -0.388000
     30 H20         -0.5430    -0.0000    -0.9370 ha         1 IMJ       0.099000
     31 H21          1.9040    -0.0010    -0.9400 ha         1 IMJ       0.102000
     32 H22          3.1540    -0.0000     1.1810 ha         1 IMJ       0.101000
     33 H23          1.9660     0.0010     3.3310 ha         1 IMJ       0.100000
     34 H29          0.4480     0.2300     5.0100 h1         1 IMJ       0.059000
     35 H29A        -0.8190    -0.9730     5.2880 h1         1 IMJ       0.059000
     36 H29B        -1.2030     0.7520     5.3720 h1         1 IMJ       0.059000
     37 H30         -4.2470    -0.4500     3.1370 hc         1 IMJ       0.059000
     38 H30A        -3.7220     1.0230     3.9650 hc         1 IMJ       0.059000
     39 H30B        -3.3040    -0.5620     4.6290 hc         1 IMJ       0.059000
     40 H31         -4.1450    -0.4310     1.1060 h1         1 IMJ       0.076000
     41 H31A        -3.0300    -0.5840    -0.2580 h1         1 IMJ       0.076000
     42 H33         -2.1110     2.6830    -0.4970 h1         1 IMJ       0.053333
     43 H33A        -2.3540     1.2250    -1.4700 h1         1 IMJ       0.053333
     44 H33B        -3.5420     2.5340    -1.5270 h1         1 IMJ       0.053333
     45 H36         -4.2410     3.1810     1.3270 DU         1 IMJ       0.039000
     46 H37         -5.1900     5.0080     1.3770 DU         1 IMJ       0.091000
     47 H39         -7.7900     5.7630     2.0320 ha         1 IMJ       0.130000
     48 H41         -9.3240     8.2830     1.1200 hc         1 IMJ       0.068000
     49 H41A        -8.5100     8.0270     2.6730 hc         1 IMJ       0.068000
     50 H42         -7.1340     9.9670     2.3680 hc         1 IMJ       0.083000
     51 H42A        -8.7890    10.4600     1.9720 hc         1 IMJ       0.083000
     52 HN44        -6.5570     9.6830    -1.4170 hn         1 IMJ       0.100000
     53 H47         -4.6270     5.5780    -0.8610 h4         1 IMJ       0.136000
@<TRIPOS>BOND
     1     1     2 1   
     2     1     6 1   
     3     1    30 1   
     4     2     3 1   
     5     2    31 1   
     6     3     4 1   
     7     3    32 1   
     8     4     5 1   
     9     4    33 1   
    10     5     6 1   
    11     5     7 1   
    12     6     9 1   
    13     7     8 1   
    14     7    10 1   
    15     8     9 1   
    16     8    11 1   
    17     9    12 1   
    18    10    34 1   
    19    10    35 1   
    20    10    36 1   
    21    11    37 1   
    22    11    38 1   
    23    11    39 1   
    24    12    13 1   
    25    12    40 1   
    26    12    41 1   
    27    13    14 1   
    28    13    15 1   
    29    14    42 1   
    30    14    43 1   
    31    14    44 1   
    32    15    16 1   
    33    15    17 1   
    34    15    45 1   
    35    17    18 1   
    36    17    45 1   
    37    18    19 1   
    38    18    46 1   
    39    19    20 1   
    40    19    28 1   
    41    19    46 1   
    42    20    21 1   
    43    20    47 1   
    44    21    22 1   
    45    21    26 1   
    46    22    23 1   
    47    22    48 1   
    48    22    49 1   
    49    23    24 1   
    50    23    50 1   
    51    23    51 1   
    52    24    25 1   
    53    24    29 1   
    54    25    26 1   
    55    25    52 1   
    56    26    27 1   
    57    27    28 1   
    58    28    53 1   
@<TRIPOS>SUBSTRUCTURE
     1 IMJ         1 TEMP              0 ****  ****    0 ROOT
