@<TRIPOS>MOLECULE
molecule
   53    56     1     0     0
SMALL
bcc


@<TRIPOS>ATOM
      1 C20          0.0000     0.0000     0.0000 ca         1 IMJ      -0.090000
      2 C21          1.3670     0.0000     0.0000 ca         1 IMJ      -0.155000
      3 C22          2.0710     0.0000     1.1970 ca         1 IMJ      -0.114000
      4 C23          1.4070     0.0010     2.4030 ca         1 IMJ      -0.138000
      5 C24          0.0150     0.0020     2.4260 ca         1 IMJ      -0.037200
      6 C25         -0.6940     0.0010     1.2110 ca         1 IMJ      -0.089800
      7 N26         -0.9160     0.0030     3.4400 na         1 IMJ      -0.071400
      8 C27         -2.1780     0.0020     2.9120 cc         1 IMJ      -0.014300
      9 C28         -2.1140     0.0020     1.5710 cd         1 IMJ      -0.196400
     10 C29         -0.6020     0.0030     4.8710 c3         1 IMJ       0.039600
     11 C30         -3.4520     0.0030     3.7180 c3         1 IMJ      -0.032900
     12 C31         -3.2800     0.0010     0.6180 c3         1 IMJ       0.190200
     13 N32         -3.5830     1.3780     0.2160 n          1 IMJ      -0.479800
     14 C33         -2.8500     1.9950    -0.8910 c3         1 IMJ       0.096300
     15 C34         -4.5360     2.0750     0.8650 c          1 IMJ       0.672300
     16 O35         -5.1460     1.5620     1.7850 o          1 IMJ      -0.632100
     17 C36         -4.8390     3.4490     0.4640 ce         1 IMJ      -0.247200
     18 C37         -5.7920     4.1470     1.1140 cf         1 IMJ      -0.025200
     19 C38         -6.0960     5.5280     0.7110 ca         1 IMJ      -0.230100
     20 C39         -7.0880     6.2660     1.3780 ca         1 IMJ      -0.044000
     21 C40         -7.3330     7.5480     0.9670 ca         1 IMJ      -0.243600
     22 C41         -8.3870     8.3750     1.6550 c3         1 IMJ      -0.030100
     23 C42         -7.9530     9.8410     1.6700 c3         1 IMJ      -0.154400
     24 C43         -7.5010    10.2530     0.2940 c          1 IMJ       0.705500
     25 N44         -6.8580     9.3870    -0.5090 ns         1 IMJ      -0.537400
     26 C45         -6.6050     8.0850    -0.0920 ca         1 IMJ       0.566200
     27 N46         -5.6740     7.3650    -0.7060 nb         1 IMJ      -0.730000
     28 C47         -5.3990     6.1320    -0.3410 ca         1 IMJ       0.468200
     29 O48         -7.7210    11.3800    -0.0950 o          1 IMJ      -0.616500
     30 H20         -0.5430    -0.0000    -0.9370 ha         1 IMJ       0.123000
     31 H21          1.9040    -0.0010    -0.9400 ha         1 IMJ       0.127000
     32 H22          3.1540    -0.0000     1.1810 ha         1 IMJ       0.129000
     33 H23          1.9660     0.0010     3.3310 ha         1 IMJ       0.124000
     34 H29          0.4360     0.2780     5.0130 h1         1 IMJ       0.049033
     35 H29A        -1.2380     0.7180     5.3800 h1         1 IMJ       0.049033
     36 H29B        -0.7730    -0.9860     5.2780 h1         1 IMJ       0.049033
     37 H30         -3.2940    -0.5360     4.6440 hc         1 IMJ       0.056033
     38 H30A        -4.2390    -0.4780     3.1490 hc         1 IMJ       0.056033
     39 H30B        -3.7390     1.0240     3.9380 hc         1 IMJ       0.056033
     40 H31         -3.0300    -0.5840    -0.2580 h1         1 IMJ       0.063700
     41 H31A        -4.1450    -0.4310     1.1060 h1         1 IMJ       0.063700
     42 H33         -2.2440     1.2450    -1.3860 h1         1 IMJ       0.039367
     43 H33A        -3.5530     2.4150    -1.6000 h1         1 IMJ       0.039367
     44 H33B        -2.2100     2.7810    -0.5080 h1         1 IMJ       0.039367
     45 H36         -4.2970     3.9060    -0.3550 ha         1 IMJ       0.131000
     46 H37         -6.3350     3.6910     1.9330 ha         1 IMJ       0.158000
     47 H39         -7.7890     5.7630     2.0330 ha         1 IMJ       0.149000
     48 H41         -8.5100     8.0260     2.6730 hc         1 IMJ       0.062200
     49 H41A        -9.3240     8.2820     1.1190 hc         1 IMJ       0.062200
     50 H42         -8.7890    10.4600     1.9720 hc         1 IMJ       0.081700
     51 H42A        -7.1340     9.9660     2.3680 hc         1 IMJ       0.081700
     52 HN44        -6.5570     9.6830    -1.4170 hn         1 IMJ       0.350500
     53 H47         -4.6220     5.5800    -0.8570 h4         1 IMJ       0.032100
@<TRIPOS>BOND
     1     1     2 ar
     2     1     6 ar
     3     2     3 ar
     4     3     4 ar
     5     4     5 ar
     6     5     6 ar
     7     5     7 1
     8     6     9 1
     9     7     8 1
    10     7    10 1
    11     8     9 2
    12     8    11 1
    13     9    12 1
    14    12    13 1
    15    13    14 1
    16    13    15 1
    17    15    16 2
    18    15    17 1
    19    17    18 2
    20    18    19 1
    21    19    20 ar
    22    19    28 ar
    23    20    21 ar
    24    21    22 1
    25    21    26 ar
    26    22    23 1
    27    23    24 1
    28    24    25 1
    29    24    29 2
    30    25    26 1
    31    26    27 ar
    32    27    28 ar
    33     1    30 1
    34     2    31 1
    35     3    32 1
    36     4    33 1
    37    10    34 1
    38    10    35 1
    39    10    36 1
    40    11    37 1
    41    11    38 1
    42    11    39 1
    43    12    40 1
    44    12    41 1
    45    14    42 1
    46    14    43 1
    47    14    44 1
    48    17    45 1
    49    18    46 1
    50    20    47 1
    51    22    48 1
    52    22    49 1
    53    23    50 1
    54    23    51 1
    55    25    52 1
    56    28    53 1
@<TRIPOS>SUBSTRUCTURE
     1 IMJ         1 TEMP              0 ****  ****    0 ROOT
