@<TRIPOS>MOLECULE
molecule
   39    41     1     0     0
SMALL
bcc


@<TRIPOS>ATOM
      1 C1           0.0000     0.0000     0.0000 c3         1 IMK       0.157800
      2 C2           1.5310     0.0000     0.0000 c3         1 IMK       0.110100
      3 O2           2.0090    -1.1670    -0.6710 oh         1 IMK      -0.601800
      4 C3           2.0340     0.0000     1.4460 c3         1 IMK       0.104100
      5 O3           3.4610     0.0750     1.4570 oh         1 IMK      -0.604800
      6 C4           1.4530     1.2140     2.1770 c3         1 IMK       0.103100
      7 O4           1.8570     1.1860     3.5480 oh         1 IMK      -0.602800
      8 C5          -0.0760     1.1670     2.0940 c3         1 IMK       0.147100
      9 O5          -0.4750     1.1370     0.7230 os         1 IMK      -0.383600
     10 C6          -0.6620     2.4080     2.7700 c3         1 IMK       0.153400
     11 O6          -2.0870     2.3070     2.7950 oh         1 IMK      -0.600800
     12 C7          -0.8160     1.3700    -4.7050 ca         1 IMK      -0.049000
     13 C8          -0.8480     0.6830    -3.4890 ca         1 IMK       0.075400
     14 C9          -1.6400    -0.4710    -3.3680 ca         1 IMK      -0.031200
     15 C10         -2.3820    -0.9170    -4.4540 ca         1 IMK      -0.151000
     16 C11         -2.3350    -0.2220    -5.6440 ca         1 IMK      -0.088000
     17 C12         -1.5520     0.9170    -5.7640 ca         1 IMK      -0.124300
     18 N1          -1.4660    -0.9180    -2.0740 na         1 IMK      -0.353300
     19 C13         -0.5030     0.0590    -1.4200 cc         1 IMK       0.488800
     20 N2          -0.2440     0.8760    -2.2880 nd         1 IMK      -0.581100
     21 H1          -0.3590    -0.9040     0.4770 h1         1 IMK       0.061700
     22 H2           1.8900     0.8870    -0.5060 h1         1 IMK       0.077700
     23 HO2          2.7900    -0.9540    -1.1540 ho         1 IMK       0.420000
     24 H3           1.7100    -0.9080     1.9410 h1         1 IMK       0.058700
     25 HO3          3.8120    -0.6810     1.8980 ho         1 IMK       0.415000
     26 H4           1.8110     2.1220     1.7080 h1         1 IMK       0.060700
     27 HO4          2.5810     1.7760     3.6750 ho         1 IMK       0.415000
     28 H5          -0.4350     0.2750     2.5920 h1         1 IMK       0.063700
     29 H61         -0.2870     2.4780     3.7840 h1         1 IMK       0.038700
     30 H62         -0.3720     3.2920     2.2160 h1         1 IMK       0.038700
     31 HO6         -2.4470     3.0480     3.2540 ho         1 IMK       0.405000
     32 H7          -0.2070     2.2610    -4.8090 ha         1 IMK       0.140000
     33 H10         -2.9950    -1.8050    -4.3660 ha         1 IMK       0.129000
     34 H11         -2.9130    -0.5680    -6.4920 ha         1 IMK       0.132000
     35 HN1         -1.7920    -1.7890    -1.7030 hn         1 IMK       0.295700
     36 H141        -0.5130     2.0400    -7.2440 hc         1 IMK       0.040700
     37 H142        -1.7910     0.9930    -7.8770 hc         1 IMK       0.040700
     38 H143        -2.2110     2.4910    -7.0360 hc         1 IMK       0.040700
     39 C14         -1.5140     1.6630    -7.0720 c3         1 IMK      -0.039800
@<TRIPOS>BOND
     1     1     2 1
     2     1     9 1
     3     1    19 1
     4     1    21 1
     5     2     3 1
     6     2     4 1
     7     2    22 1
     8     3    23 1
     9     4     5 1
    10     4     6 1
    11     4    24 1
    12     5    25 1
    13     6     7 1
    14     6     8 1
    15     6    26 1
    16     7    27 1
    17     8     9 1
    18     8    10 1
    19     8    28 1
    20    10    11 1
    21    10    29 1
    22    10    30 1
    23    11    31 1
    24    12    13 ar
    25    12    17 ar
    26    12    32 1
    27    13    14 ar
    28    13    20 1
    29    14    15 ar
    30    14    18 1
    31    15    16 ar
    32    15    33 1
    33    16    17 ar
    34    16    34 1
    35    17    39 1
    36    18    19 1
    37    18    35 1
    38    19    20 2
    39    39    36 1
    40    39    37 1
    41    39    38 1
@<TRIPOS>SUBSTRUCTURE
     1 IMK         1 TEMP              0 ****  ****    0 ROOT
