@<TRIPOS>MOLECULE
IMK
   39    36     1     0     0
SMALL
bcc


@<TRIPOS>ATOM
      1 C1         -1.8130   -2.8190   -0.1010 c1        1 IMK      0.197000
      2 C2          1.5930    2.9760   -0.0490 c1        1 IMK     -0.143000
      3 O2          0.1400   -1.5400    0.5350 oh        1 IMK     -0.432000
      4 C3          1.6470    2.4220    1.0100 c1        1 IMK     -0.254000
      5 O3          2.5070   -1.8540    1.4290 oh        1 IMK     -0.432000
      6 C4          1.7340    1.7320    2.2800 c3        1 IMK      0.204000
      7 O4          1.5860    0.3220    2.1040 oh        1 IMK     -0.364000
      8 C5          0.7560    2.2300    3.2930 c2        1 IMK     -0.345000
      9 O5         -1.6330   -3.3310    0.9370 o         1 IMK     -0.200000
     10 C6          0.2190    3.4590    3.2640 c2        1 IMK      0.030000
     11 O6         -0.6430    3.9540    4.2030 oh        1 IMK     -0.255000
     12 C7         -0.7600    1.5320   -5.0740 ca        1 IMK     -0.073000
     13 C8         -0.6130    1.0320   -3.7740 ca        1 IMK     -0.075000
     14 C9         -1.2560   -0.2220   -3.4120 ca        1 IMK     -0.036000
     15 C10        -2.0210   -0.9380   -4.3410 ca        1 IMK     -0.128000
     16 C11        -2.1410   -0.4070   -5.6140 ca        1 IMK     -0.117000
     17 C12        -1.5230    0.8080   -5.9840 ca        1 IMK     -0.095000
     18 N1         -0.9230   -0.4510   -2.0740 na        1 IMK     -0.236000
     19 C13        -0.1250    0.6350   -1.6780 c2        1 IMK     -0.042000
     20 N2          0.0860    1.5330   -2.6560 n2        1 IMK     -0.165000
     21 H1          0.2750    0.7060   -0.6550 h5        1 IMK      0.200000
     22 H2          1.5300    3.4470   -1.0010 ha        1 IMK      0.243000
     23 HO2         0.9300   -1.5870   -0.0150 ho        1 IMK      0.219500
     24 H3          0.3790   -2.0340    1.3290 ho        1 IMK      0.219500
     25 HO3         2.4460   -1.6760    2.3730 ho        1 IMK      0.219500
     26 H4          2.9030   -1.0510    1.0720 ho        1 IMK      0.219500
     27 HO4         2.7860    1.8320    2.6940 h1        1 IMK      0.126000
     28 H5          0.7090    0.1580    1.7300 ho        1 IMK      0.226000
     29 H61         0.5260    1.5110    4.0940 ha        1 IMK      0.140000
     30 H62         0.4020    4.2230    2.4870 h4        1 IMK      0.176000
     31 HO6        -0.8070    3.2770    4.8760 ho        1 IMK      0.215000
     32 H7         -0.2780    2.4770   -5.3610 ha        1 IMK      0.144000
     33 H10        -2.7360   -0.9450   -6.3690 ha        1 IMK      0.130000
     34 H11        -2.5080   -1.8830   -4.0680 ha        1 IMK      0.136000
     35 HN1        -1.2190   -1.2050   -1.5040 hn        1 IMK      0.280000
     36 H141       -2.7890    1.4650   -7.5850 hc        1 IMK      0.080667
     37 H142       -1.1640    2.2680   -7.5320 hc        1 IMK      0.080667
     38 H143       -1.3110    0.5540   -8.1030 hc        1 IMK      0.080667
     39 C14        -1.7030    1.3030   -7.3700 c3        1 IMK     -0.174000
@<TRIPOS>BOND
     1    1    9 1   
     2    2    4 1   
     3    2   22 1   
     4    3   23 1   
     5    3   24 1   
     6    4    6 1   
     7    5   25 1   
     8    5   26 1   
     9    6    7 1   
    10    6    8 1   
    11    6   27 1   
    12    7   28 1   
    13    8   10 1   
    14    8   29 1   
    15   10   11 1   
    16   10   30 1   
    17   11   31 1   
    18   12   13 1   
    19   12   17 1   
    20   12   32 1   
    21   13   14 1   
    22   13   20 1   
    23   14   15 1   
    24   14   18 1   
    25   15   16 1   
    26   15   34 1   
    27   16   17 1   
    28   16   33 1   
    29   17   39 1   
    30   18   19 1   
    31   18   35 1   
    32   19   20 1   
    33   19   21 1   
    34   36   39 1   
    35   37   39 1   
    36   38   39 1   
@<TRIPOS>SUBSTRUCTURE
     1 IMK         1 TEMP              0 ****  ****    0 ROOT
