@<TRIPOS>MOLECULE
molecule
   40    42     1     0     0
SMALL
bcc


@<TRIPOS>ATOM
      1 N1           0.0000     0.0000     0.0000 n          1 IMM      -0.280200
      2 C2           1.3740     0.0000     0.0000 cc         1 IMM      -0.034600
      3 C3           1.8310     0.0000     1.2600 cd         1 IMM      -0.048400
      4 C4           0.6620     0.0010     2.1440 ca         1 IMM      -0.036800
      5 C5           0.4980     0.0060     3.5300 ca         1 IMM      -0.090000
      6 C6          -0.7750    -0.0010     4.0660 ca         1 IMM       0.070100
      7 C7          -1.8890    -0.0010     3.2310 ca         1 IMM      -0.208000
      8 C8          -1.7370     0.0000     1.8620 ca         1 IMM      -0.120000
      9 C9          -0.4650     0.0000     1.3040 ca         1 IMM      -0.015400
     10 C10         -0.7760    -0.0010    -1.1010 c          1 IMM       0.724700
     11 C11         -1.2890     1.2740    -1.6430 ca         1 IMM      -0.163600
     12 C12         -2.1800     1.2690    -2.7180 ca         1 IMM      -0.069500
     13 C13         -2.6550     2.4620    -3.2200 ca         1 IMM      -0.121500
     14 C14         -2.2500     3.6630    -2.6600 ca         1 IMM       0.079900
     15 C15         -1.3680     3.6730    -1.5950 ca         1 IMM      -0.121500
     16 C16         -0.8900     2.4870    -1.0790 ca         1 IMM      -0.069500
     17 C17          2.2390    -0.0000    -1.2350 c3         1 IMM      -0.022900
     18 C18          3.2760    -0.0010     1.6870 c3         1 IMM      -0.126200
     19 C19          3.7580     1.4210     1.8280 c          1 IMM       0.892600
     20 C20         -2.3500    -0.0010     5.6590 c3         1 IMM       0.111700
     21 O1          -1.0540    -1.0490    -1.6490 o          1 IMM      -0.527100
     22 O2          -0.9410    -0.0010     5.4160 os         1 IMM      -0.302900
     23 O3           3.0040     2.3390     1.6060 o          1 IMM      -0.845800
     24 O4           5.0230     1.6670     2.2030 o          1 IMM      -0.845800
     25 I1          -2.9790     5.4700    -3.4310 i          1 IMM      -0.188900
     26 H5           1.3630     0.0060     4.1810 ha         1 IMM       0.157000
     27 H7          -2.8830    -0.0060     3.6610 ha         1 IMM       0.128000
     28 H8          -2.6090     0.0000     1.2200 ha         1 IMM       0.117000
     29 H12         -2.4970     0.3310    -3.1570 ha         1 IMM       0.169500
     30 H13         -3.3460     2.4610    -4.0540 ha         1 IMM       0.144500
     31 H15         -1.0570     4.6160    -1.1600 ha         1 IMM       0.144500
     32 H16         -0.1990     2.4970    -0.2450 ha         1 IMM       0.169500
     33 H171         2.6500     0.9900    -1.3880 hc         1 IMM       0.048033
     34 H172         1.6410    -0.2800    -2.0940 hc         1 IMM       0.048033
     35 H173         3.0460    -0.7110    -1.1100 hc         1 IMM       0.048033
     36 H181         3.8730    -0.5120     0.9410 hc         1 IMM       0.042200
     37 H182         3.3710    -0.5110     2.6380 hc         1 IMM       0.042200
     38 H201        -2.7920     0.8830     5.2160 h1         1 IMM       0.033700
     39 H202        -2.5320    -0.0000     6.7270 h1         1 IMM       0.033700
     40 H203        -2.7920    -0.8860     5.2180 h1         1 IMM       0.033700
@<TRIPOS>BOND
     1     1     2 1
     2     1     9 1
     3     1    10 1
     4     2     3 2
     5     2    17 1
     6     3     4 1
     7     3    18 1
     8     4     5 ar
     9     4     9 ar
    10     5     6 ar
    11     5    26 1
    12     6     7 ar
    13     6    22 1
    14     7     8 ar
    15     7    27 1
    16     8     9 ar
    17     8    28 1
    18    10    11 1
    19    10    21 2
    20    11    12 ar
    21    11    16 ar
    22    12    13 ar
    23    12    29 1
    24    13    14 ar
    25    13    30 1
    26    14    15 ar
    27    14    25 1
    28    15    16 ar
    29    15    31 1
    30    16    32 1
    31    17    33 1
    32    17    34 1
    33    17    35 1
    34    18    19 1
    35    18    36 1
    36    18    37 1
    37    19    23 1
    38    19    24 1
    39    20    22 1
    40    20    38 1
    41    20    39 1
    42    20    40 1
@<TRIPOS>SUBSTRUCTURE
     1 IMM         1 TEMP              0 ****  ****    0 ROOT
