@<TRIPOS>MOLECULE
IMM
   40    42     1     0     0
SMALL
bcc


@<TRIPOS>ATOM
      1 N1          0.4890    0.3480   -0.3120 n         1 IMM     -0.260200
      2 C2          1.8580   -0.0310   -0.0830 cc        1 IMM     -0.008600
      3 C3          2.0730   -0.2420    1.2740 cd        1 IMM     -0.047400
      4 C4          0.8090    0.0040    1.9570 ca        1 IMM     -0.034800
      5 C5          0.4400   -0.0590    3.2920 ca        1 IMM     -0.097000
      6 C6         -0.8980    0.2080    3.6190 ca        1 IMM      0.082100
      7 C7         -1.8500    0.5350    2.6420 ca        1 IMM     -0.194000
      8 C8         -1.4880    0.6140    1.2990 ca        1 IMM     -0.126000
      9 C9         -0.1610    0.3650    0.9460 ca        1 IMM     -0.025400
     10 C10        -0.0480    0.6750   -1.5520 c         1 IMM      0.685700
     11 C11        -1.2880    1.5100   -1.6090 ca        1 IMM     -0.108600
     12 C12        -2.4260    1.0070   -2.2470 ca        1 IMM     -0.094500
     13 C13        -3.5610    1.8070   -2.3760 ca        1 IMM     -0.108000
     14 C14        -3.5570    3.1110   -1.8790 ca        1 IMM      0.032900
     15 C15        -2.4180    3.6160   -1.2510 ca        1 IMM     -0.108000
     16 C16        -1.2820    2.8170   -1.1120 ca        1 IMM     -0.094500
     17 C17         2.8560   -0.1330   -1.1620 c3        1 IMM     -0.061900
     18 C18         3.3200   -0.6510    1.9260 c3        1 IMM     -0.159200
     19 C19         4.4040    0.4600    1.9270 c         1 IMM      0.920600
     20 C20        -2.3640    0.7830    5.3990 c3        1 IMM      0.119700
     21 O1          0.4900    0.3060   -2.6120 o         1 IMM     -0.565100
     22 O2         -1.2120    0.0730    4.9670 os        1 IMM     -0.333900
     23 O3          5.1500    0.5490    0.9090 o         1 IMM     -0.834800
     24 O4          4.5070    1.1790    2.9560 o         1 IMM     -0.834800
     25 I1         -5.2030    4.2690   -2.0740 i         1 IMM     -0.160900
     26 H5          1.1740   -0.3030    4.0740 ha        1 IMM      0.168000
     27 H7         -2.8930    0.7320    2.9250 ha        1 IMM      0.124000
     28 H8         -2.2450    0.8690    0.5450 ha        1 IMM      0.129000
     29 H12        -2.4170   -0.0160   -2.6530 ha        1 IMM      0.157500
     30 H13        -4.4530    1.4000   -2.8760 ha        1 IMM      0.143500
     31 H15        -2.4030    4.6440   -0.8570 ha        1 IMM      0.143500
     32 H16        -0.3850    3.2140   -0.6100 ha        1 IMM      0.157500
     33 H171        2.7780    0.7280   -1.8710 hc        1 IMM      0.070700
     34 H172        2.7030   -1.0750   -1.7450 hc        1 IMM      0.070700
     35 H173        3.8830   -0.1280   -0.6960 hc        1 IMM      0.070700
     36 H181        3.1140   -0.9370    2.9890 hc        1 IMM      0.040200
     37 H182        3.7480   -1.5400    1.3920 hc        1 IMM      0.040200
     38 H201       -2.2970    0.7480    6.5150 h1        1 IMM      0.033033
     39 H202       -2.3520    1.8390    5.0360 h1        1 IMM      0.033033
     40 H203       -3.2910    0.2650    5.0490 h1        1 IMM      0.033033
@<TRIPOS>BOND
     1    1    2 1   
     2    1    9 1   
     3    1   10 1   
     4    2    3 2   
     5    2   17 1   
     6    3    4 1   
     7    3   18 1   
     8    4    5 ar  
     9    4    9 ar  
    10    5    6 ar  
    11    5   26 1   
    12    6    7 ar  
    13    6   22 1   
    14    7    8 ar  
    15    7   27 1   
    16    8    9 ar  
    17    8   28 1   
    18   10   11 1   
    19   10   21 2   
    20   11   12 ar  
    21   11   16 ar  
    22   12   13 ar  
    23   12   29 1   
    24   13   14 ar  
    25   13   30 1   
    26   14   15 ar  
    27   14   25 1   
    28   15   16 ar  
    29   15   31 1   
    30   16   32 1   
    31   17   33 1   
    32   17   34 1   
    33   17   35 1   
    34   18   19 1   
    35   18   36 1   
    36   18   37 1   
    37   19   23 1   
    38   19   24 1   
    39   20   22 1   
    40   20   38 1   
    41   20   39 1   
    42   20   40 1   
@<TRIPOS>SUBSTRUCTURE
     1 IMM         1 TEMP              0 ****  ****    0 ROOT
