@<TRIPOS>MOLECULE
molecule
   40    42     1     0     0
SMALL
bcc


@<TRIPOS>ATOM
      1 C            0.0000     0.0000     0.0000 ca         1 IMN      -0.014400
      2 C1           1.4060     0.0000     0.0000 ca         1 IMN      -0.037800
      3 C2           2.1040     0.0000     1.2080 ca         1 IMN      -0.090000
      4 C3           1.4040    -0.0110     2.4000 ca         1 IMN       0.069100
      5 C4           0.0130    -0.0100     2.3960 ca         1 IMN      -0.208000
      6 C5          -0.6850    -0.0050     1.2090 ca         1 IMN      -0.120000
      7 C6           1.0960    -0.0200     4.6180 c3         1 IMN       0.111700
      8 C7           1.8140     0.0060    -1.4080 cc         1 IMN      -0.049400
      9 C8           0.6940     0.0090    -2.1450 cd         1 IMN      -0.034600
     10 C10         -2.4230     1.2810    -1.8630 ca         1 IMN      -0.178600
     11 C11         -3.7810     1.2780    -2.1910 ca         1 IMN      -0.059500
     12 C12         -4.4620     2.4710    -2.3030 ca         1 IMN      -0.145000
     13 C13         -3.8040     3.6700    -2.0910 ca         1 IMN       0.052400
     14 C14         -2.4580     3.6800    -1.7640 ca         1 IMN      -0.145000
     15 C15         -1.7660     2.4930    -1.6430 ca         1 IMN      -0.059500
     16 C16          0.6480     0.0160    -3.6520 c3         1 IMN      -0.022900
     17 C17          3.2270     0.0090    -1.9310 c3         1 IMN      -0.125200
     18 C18          3.6970     1.4290    -2.1000 c          1 IMN       0.891600
     19 N           -0.4070     0.0060    -1.3220 n          1 IMN      -0.279200
     20 O            2.0790    -0.0160     3.5800 os         1 IMN      -0.302900
     21 O1          -2.2370    -1.0420    -2.0170 o          1 IMN      -0.530100
     22 O2           2.9610     2.3470    -1.8250 o          1 IMN      -0.846300
     23 O3           4.9360     1.6770    -2.5560 o          1 IMN      -0.846300
     24 Cl          -4.6690     5.1680    -2.2340 cl         1 IMN      -0.122400
     25 H2           3.1870    -0.0000     1.2110 ha         1 IMN       0.157000
     26 H4          -0.5260    -0.0190     3.3360 ha         1 IMN       0.128000
     27 H5          -1.7680    -0.0050     1.2170 ha         1 IMN       0.117000
     28 H61          0.4770     0.8640     4.5320 h1         1 IMN       0.033700
     29 H62          0.4780    -0.9050     4.5250 h1         1 IMN       0.033700
     30 H63          1.5900    -0.0240     5.5820 h1         1 IMN       0.033700
     31 H11         -4.2970     0.3400    -2.3570 ha         1 IMN       0.169500
     32 H12         -5.5150     2.4710    -2.5570 ha         1 IMN       0.146500
     33 H14         -1.9490     4.6210    -1.5970 ha         1 IMN       0.146500
     34 H15         -0.7140     2.5010    -1.3880 ha         1 IMN       0.169500
     35 H161         0.8840     1.0080    -4.0160 hc         1 IMN       0.048033
     36 H162         1.3700    -0.6930    -4.0380 hc         1 IMN       0.048033
     37 H163        -0.3450    -0.2640    -3.9840 hc         1 IMN       0.048033
     38 H171         3.8730    -0.5040    -1.2280 hc         1 IMN       0.042200
     39 H172         3.2590    -0.4990    -2.8870 hc         1 IMN       0.042200
     40 C9          -1.6870     0.0060    -1.7400 c          1 IMN       0.725700
@<TRIPOS>BOND
     1     1     2 ar
     2     1     6 ar
     3     1    19 1
     4     2     3 ar
     5     2     8 1
     6     3     4 ar
     7     3    25 1
     8     4     5 ar
     9     4    20 1
    10     5     6 ar
    11     5    26 1
    12     6    27 1
    13     7    20 1
    14     7    28 1
    15     7    29 1
    16     7    30 1
    17     8     9 2
    18     8    17 1
    19     9    16 1
    20     9    19 1
    21    40    10 1
    22    40    19 1
    23    40    21 2
    24    10    11 ar
    25    10    15 ar
    26    11    12 ar
    27    11    31 1
    28    12    13 ar
    29    12    32 1
    30    13    14 ar
    31    13    24 1
    32    14    15 ar
    33    14    33 1
    34    15    34 1
    35    16    35 1
    36    16    36 1
    37    16    37 1
    38    17    18 1
    39    17    38 1
    40    17    39 1
    41    18    22 1
    42    18    23 1
@<TRIPOS>SUBSTRUCTURE
     1 IMN         1 TEMP              0 ****  ****    0 ROOT
