@<TRIPOS>MOLECULE
IMN
   40    40     1     0     0
SMALL
bcc


@<TRIPOS>ATOM
      1 C          -0.0710   -0.9900    0.2310 c2        1 IMN      0.003300
      2 C1          1.4640   -1.0510    0.1870 c3        1 IMN      0.127800
      3 C2          2.0840   -0.8350    1.4540 c1        1 IMN     -0.173100
      4 C3          2.6670   -0.5920    2.4680 c1        1 IMN      0.015600
      5 C4         -1.5010   -2.6160    1.6790 c2        1 IMN     -0.198100
      6 C5         -0.8180   -1.7970    0.9440 c1        1 IMN     -0.058800
      7 C6          4.0610    0.9060    3.5280 c3        1 IMN      0.089700
      8 C7          1.8080    0.0610   -0.7990 c2        1 IMN     -0.082400
      9 C8          0.6620    0.6670   -1.2310 c2        1 IMN     -0.028600
     10 C10        -2.1660    1.4590   -1.7400 cg        1 IMN     -0.100200
     11 C11        -5.5970    1.9240   -2.4420 c2        1 IMN     -0.168000
     12 C12        -5.4260    2.7040   -3.5110 ce        1 IMN     -0.159000
     13 C13        -4.2580    3.5230   -3.7700 ce        1 IMN      0.057400
     14 C14        -3.0000    3.3540   -3.3090 cf        1 IMN     -0.018700
     15 C15        -2.5850    2.3210   -2.4620 ch        1 IMN     -0.119300
     16 C16         0.5930    1.8200   -2.1500 c3        1 IMN     -0.064900
     17 C17         3.1960    0.3400   -1.1800 c3        1 IMN     -0.162200
     18 C18         3.7250    1.7100   -0.6760 c         1 IMN      0.927600
     19 N          -0.5030    0.0480   -0.6530 n         1 IMN     -0.274200
     20 O           3.3310   -0.3460    3.5890 os        1 IMN     -0.241400
     21 O1         -2.7510   -0.2090   -0.2380 o         1 IMN     -0.598100
     22 O2          3.4870    2.7260   -1.3870 o         1 IMN     -0.839800
     23 O3          4.4070    1.7280    0.3860 o         1 IMN     -0.839800
     24 CL         -4.5540    4.8520   -4.8170 cl        1 IMN     -0.128400
     25 H2          1.7740   -2.0500   -0.2330 hc        1 IMN      0.074700
     26 H4         -1.8490   -3.5910    1.3070 ha        1 IMN      0.114500
     27 H5         -1.7800   -2.3780    2.7160 ha        1 IMN      0.114500
     28 H61         3.4020    1.6980    3.9560 h1        1 IMN      0.067033
     29 H62         4.3630    1.1640    2.4790 h1        1 IMN      0.067033
     30 H63         4.9460    0.7220    4.1830 h1        1 IMN      0.067033
     31 H11        -4.8530    1.8190   -1.6380 ha        1 IMN      0.129000
     32 H12        -6.5100    1.3270   -2.3100 ha        1 IMN      0.129000
     33 H14        -6.2180    2.7690   -4.2810 ha        1 IMN      0.130000
     34 H15        -2.1960    4.0610   -3.5990 ha        1 IMN      0.163000
     35 H161        0.0350    2.6700   -1.6840 hc        1 IMN      0.065367
     36 H162        0.0940    1.5420   -3.1100 hc        1 IMN      0.065367
     37 H163        1.6450    2.1750   -2.3530 hc        1 IMN      0.065367
     38 H171        3.2830    0.3410   -2.2990 hc        1 IMN      0.043700
     39 H172        3.8660   -0.4590   -0.7700 hc        1 IMN      0.043700
     40 C9         -1.8290    0.3950   -0.8320 c         1 IMN      0.694300
@<TRIPOS>BOND
     1    1    2 1   
     2    1    6 2   
     3    1   19 1   
     4    2    3 1   
     5    2    8 1   
     6    2   25 1   
     7    3    4 3   
     8    4   20 1   
     9    5    6 2   
    10    5   26 1   
    11    5   27 1   
    12    7   20 1   
    13    7   28 1   
    14    7   29 1   
    15    7   30 1   
    16    8    9 2   
    17    8   17 1   
    18    9   16 1   
    19    9   19 1   
    20   10   15 3   
    21   10   40 1   
    22   11   12 2   
    23   11   31 1   
    24   11   32 1   
    25   12   13 1   
    26   12   33 1   
    27   13   14 2   
    28   13   24 1   
    29   14   15 1   
    30   14   34 1   
    31   16   35 1   
    32   16   36 1   
    33   16   37 1   
    34   17   18 1   
    35   17   38 1   
    36   17   39 1   
    37   18   22 1   
    38   18   23 1   
    39   19   40 1   
    40   21   40 2   
@<TRIPOS>SUBSTRUCTURE
     1 IMN         1 TEMP              0 ****  ****    0 ROOT
