@<TRIPOS>MOLECULE
IMO
   37    38     1     0     0
SMALL
bcc


@<TRIPOS>ATOM
      1 P           1.3160   -0.8810   -1.0570 p4        1 IMO      1.580300
      2 O1          1.2020   -0.3470   -2.4330 o         1 IMO     -0.848167
      3 C2         -4.1240   -0.1570   -0.8950 cc        1 IMO      0.643200
      4 C1'        -5.7320    2.8140    1.9970 c3        1 IMO      0.233800
      5 C2'        -6.7170    2.0540    2.9450 c3        1 IMO      0.070100
      6 C3'        -7.6820    3.1740    3.3980 c3        1 IMO      0.091100
      7 C4'        -6.8560    4.4650    3.2610 c3        1 IMO      0.105100
      8 C5'        -6.4880    5.0900    4.6280 c3        1 IMO      0.235400
      9 O2          2.2840   -0.2310   -0.1460 o         1 IMO     -0.848167
     10 O3          1.0010   -2.3080   -0.8200 o         1 IMO     -0.896967
     11 PA         -8.2760    5.5570    6.5020 p5        1 IMO      1.322900
     12 O1A        -9.4560    6.4920    6.5090 o         1 IMO     -0.937833
     13 O2A        -8.5750    4.0980    6.2450 o         1 IMO     -0.937833
     14 O3A        -7.2320    5.8210    7.5530 o         1 IMO     -0.937833
     15 O5'        -7.4560    5.9740    5.0270 os        1 IMO     -0.568200
     16 O4'        -5.6380    4.1460    2.5350 os        1 IMO     -0.447600
     17 N9         -4.4310    2.2180    1.8410 na        1 IMO     -0.244900
     18 C4         -4.0690    1.3220    0.8110 cd        1 IMO     -0.044600
     19 N3         -4.8650    0.6470   -0.0770 nc        1 IMO     -0.572300
     20 N1         -2.8090   -0.3790   -0.9660 nd        1 IMO     -0.770100
     21 C6         -1.9590    0.2950   -0.0690 c         1 IMO      0.648000
     22 O6         -0.7120    0.1090   -0.1120 o         1 IMO     -0.716100
     23 C5         -2.6210    1.1940    0.8810 cd        1 IMO      0.128800
     24 N7         -2.1320    2.0170    1.9030 nc        1 IMO     -0.629000
     25 C8         -3.2080    2.6170    2.4360 cc        1 IMO      0.372400
     26 O2'        -7.4510    1.0460    2.2770 oh        1 IMO     -0.625800
     27 O3'        -8.7740    3.2580    2.4900 oh        1 IMO     -0.607800
     28 H2         -4.7340   -0.7200   -1.6320 h5        1 IMO     -0.015200
     29 H1'        -6.2110    2.8870    0.9720 h2        1 IMO      0.061700
     30 H2'        -6.1830    1.6040    3.8210 h1        1 IMO      0.057700
     31 H3'        -8.0570    3.0480    4.4600 h1        1 IMO      0.170700
     32 H4'        -7.4070    5.2160    2.6340 h1        1 IMO      0.060700
     33 H5'1       -5.5070    5.6340    4.4760 h1        1 IMO      0.000200
     34 H5'2       -6.3390    4.2730    5.3870 h1        1 IMO      0.000200
     35 H81        -3.2120    3.3490    3.2500 h5        1 IMO      0.054100
     36 HO'2       -6.8470    0.6270    1.6500 ho        1 IMO      0.422000
     37 HO'3       -9.3150    2.4820    2.6700 ho        1 IMO      0.388000
@<TRIPOS>BOND
     1    1    2 1   
     2    1    9 1   
     3    1   10 2   
     4    3   19 1   
     5    3   20 2   
     6    3   28 1   
     7    4    5 1   
     8    4   16 1   
     9    4   17 1   
    10    4   29 1   
    11    5    6 1   
    12    5   26 1   
    13    5   30 1   
    14    6    7 1   
    15    6   27 1   
    16    6   31 1   
    17    7    8 1   
    18    7   16 1   
    19    7   32 1   
    20    8   15 1   
    21    8   33 1   
    22    8   34 1   
    23   11   12 1   
    24   11   13 1   
    25   11   14 1   
    26   11   15 1   
    27   17   18 1   
    28   17   25 2   
    29   18   19 2   
    30   18   23 1   
    31   20   21 1   
    32   21   22 2   
    33   21   23 1   
    34   23   24 2   
    35   24   25 1   
    36   25   35 1   
    37   26   36 1   
    38   27   37 1   
@<TRIPOS>SUBSTRUCTURE
     1 IMO         1 TEMP              0 ****  ****    0 ROOT
