@<TRIPOS>MOLECULE
molecule
   37    39     1     0     0
SMALL
bcc


@<TRIPOS>ATOM
      1 P            0.0000     0.0000     0.0000 p5         1 IMO       1.112900
      2 O1           1.6100     0.0000     0.0000 o          1 IMO      -0.882167
      3 C2          -3.8860     0.6040    -1.6760 ca         1 IMO       0.680900
      4 C1'         -5.8380     2.5430     1.8680 c3         1 IMO       0.253800
      5 C2'         -6.2820     1.3510     2.7450 c3         1 IMO       0.081100
      6 C3'         -7.2010     1.9900     3.8100 c3         1 IMO       0.076100
      7 C4'         -7.2050     3.4930     3.4550 c3         1 IMO       0.127100
      8 C5'         -7.2190     4.3490     4.7220 c3         1 IMO       0.166400
      9 O2          -0.5360     0.0000     1.5180 o          1 IMO      -0.882167
     10 O3          -0.4930    -1.2080    -0.6980 o          1 IMO      -0.882167
     11 PA          -7.1700     6.5670     5.7410 p5         1 IMO       1.168900
     12 O1A         -7.0930     8.1410     5.4130 o          1 IMO      -0.919167
     13 O2A         -8.5180     6.2560     6.5650 o          1 IMO      -0.919167
     14 O3A         -5.9950     6.1730     6.5500 o          1 IMO      -0.919167
     15 O5'         -7.1510     5.7290     4.3660 os         1 IMO      -0.528200
     16 O4'         -5.9750     3.6990     2.7220 os         1 IMO      -0.373600
     17 N9          -4.4450     2.3770     1.4500 na         1 IMO      -0.264000
     18 C4          -4.0080     1.7400     0.3160 ca         1 IMO       0.426800
     19 N3          -4.6010     1.1270    -0.7030 nb         1 IMO      -0.820000
     20 N1          -2.5670     0.6620    -1.6980 nb         1 IMO      -0.792000
     21 C6          -1.8890     1.2590    -0.7260 ca         1 IMO       0.810600
     22 O6          -0.5360     1.3140    -0.7580 os         1 IMO      -0.515700
     23 C5          -2.6060     1.8330     0.3340 ca         1 IMO      -0.130200
     24 N7          -2.2660     2.5030     1.4620 nc         1 IMO      -0.511100
     25 C8          -3.3440     2.8230     2.1180 cd         1 IMO       0.403700
     26 O2'         -7.0050     0.3960     1.9670 oh         1 IMO      -0.582800
     27 O3'         -8.5210     1.4510     3.7190 oh         1 IMO      -0.594800
     28 H2          -4.3990     0.1060    -2.4900 h5         1 IMO       0.011100
     29 H1'         -6.4870     2.6350     1.0060 h2         1 IMO       0.079700
     30 H2'         -5.4220     0.8910     3.2170 h1         1 IMO       0.065700
     31 H3'         -6.7900     1.8390     4.8010 h1         1 IMO       0.051700
     32 H4'         -8.0570     3.7260     2.8270 h1         1 IMO       0.055700
     33 H5'1        -6.3680     4.0920     5.3400 h1         1 IMO       0.046200
     34 H5'2        -8.1340     4.1630     5.2730 h1         1 IMO       0.046200
     35 H81         -3.3630     3.3650     3.0560 h5         1 IMO       0.086800
     36 HO'2        -6.8070    -0.4740     2.2730 ho         1 IMO       0.388000
     37 HO'3        -8.7510     1.0430     4.5380 ho         1 IMO       0.379000
@<TRIPOS>BOND
     1     1     2 1
     2     1     9 1
     3     1    10 1
     4     1    22 1
     5     3    19 ar
     6     3    20 ar
     7     3    28 1
     8     4     5 1
     9     4    16 1
    10     4    17 1
    11     4    29 1
    12     5     6 1
    13     5    26 1
    14     5    30 1
    15     6     7 1
    16     6    27 1
    17     6    31 1
    18     7     8 1
    19     7    16 1
    20     7    32 1
    21     8    15 1
    22     8    33 1
    23     8    34 1
    24    11    12 1
    25    11    13 1
    26    11    14 1
    27    11    15 1
    28    17    18 1
    29    17    25 1
    30    18    19 ar
    31    18    23 ar
    32    20    21 ar
    33    21    22 1
    34    21    23 ar
    35    23    24 1
    36    24    25 2
    37    25    35 1
    38    26    36 1
    39    27    37 1
@<TRIPOS>SUBSTRUCTURE
     1 IMO         1 TEMP              0 ****  ****    0 ROOT
