@<TRIPOS>MOLECULE
IMP
   34    36     1     0     0
SMALL
bcc


@<TRIPOS>ATOM
      1 P            0.0000     0.0000     0.0000 p5         1 IMP       0.663900
      2 O1P          1.4800     0.0000     0.0000 o          1 IMP      -0.749833
      3 O2P         -0.5360     0.0000     1.5180 o          1 IMP      -0.749833
      4 O3P         -0.5360     1.3160    -0.7580 o          1 IMP      -0.749833
      5 O5'         -0.5380    -1.3130    -0.7600 os         1 IMP      -0.462200
      6 C5'         -0.1490    -1.6560    -2.0910 c3         1 IMP       0.280400
      7 C4'         -0.8390    -2.9570    -2.5060 c3         1 IMP       0.134100
      8 O4'         -2.2580    -2.7490    -2.6010 os         1 IMP      -0.348600
      9 C3'         -0.3440    -3.3920    -3.8990 c3         1 IMP       0.124100
     10 O3'          0.2740    -4.6780    -3.8310 oh         1 IMP      -0.571800
     11 C2'         -1.6320    -3.4540    -4.7570 c3         1 IMP       0.120100
     12 O2'         -1.6190    -4.5970    -5.6150 oh         1 IMP      -0.561800
     13 C1'         -2.7350    -3.5870    -3.6760 c3         1 IMP       0.112800
     14 N9          -4.0180    -3.0950    -4.1840 na         1 IMP       0.335100
     15 C8          -4.4870    -1.8180    -4.0850 cc         1 IMP       0.280400
     16 N7          -5.6590    -1.7350    -4.6460 nd         1 IMP      -0.558000
     17 C5          -6.0090    -2.9490    -5.1340 cd         1 IMP       0.178800
     18 C6          -7.1400    -3.4480    -5.8250 c          1 IMP       0.533000
     19 O6          -8.0780    -2.7190    -6.1020 o          1 IMP      -0.689500
     20 N1          -7.1530    -4.7550    -6.1700 ns         1 IMP      -0.021400
     21 C2          -6.1040    -5.5570    -5.8570 cd         1 IMP       0.267800
     22 N3          -5.0560    -5.1130    -5.2220 nc         1 IMP      -0.465100
     23 C4          -4.9600    -3.8290    -4.8490 cc         1 IMP      -0.177200
     24 H5'1        -0.4390    -0.8620    -2.7680 h1         1 IMP      -0.022800
     25 H5'2         0.9260    -1.7890    -2.1310 h1         1 IMP      -0.022800
     26 H4'         -0.6310    -3.7370    -1.7840 h1         1 IMP       0.039700
     27 H3'          0.3410    -2.6560    -4.3020 h1         1 IMP       0.022700
     28 HO3'         1.1750    -4.6080    -4.1000 ho         1 IMP       0.378000
     29 H2'         -1.7600    -2.5390    -5.3230 h1         1 IMP       0.019700
     30 HO2'        -1.3580    -4.3350    -6.4820 ho         1 IMP       0.374000
     31 H1'         -2.8190    -4.6150    -3.3450 h2         1 IMP       0.058700
     32 H8          -3.9620    -0.9960    -3.6130 h5         1 IMP       0.069100
     33 HN1         -7.9400    -5.1330    -6.6590 hn         1 IMP       0.165500
     34 H2          -6.1390    -6.6010    -6.1450 h5         1 IMP      -0.005200
@<TRIPOS>BOND
     1     1     2 1   
     2     1     3 1   
     3     1     4 1   
     4     1     5 1   
     5     5     6 1   
     6     6     7 1   
     7     6    24 1   
     8     6    25 1   
     9     7     8 1   
    10     7     9 1   
    11     7    26 1   
    12     8    13 1   
    13     9    10 1   
    14     9    11 1   
    15     9    27 1   
    16    10    28 1   
    17    11    12 1   
    18    11    13 1   
    19    11    29 1   
    20    12    30 1   
    21    13    14 1   
    22    13    31 1   
    23    14    15 1   
    24    14    23 1   
    25    15    16 2   
    26    15    32 1   
    27    16    17 1   
    28    17    18 1   
    29    17    23 2   
    30    18    19 2   
    31    18    20 1   
    32    20    21 1   
    33    20    33 1   
    34    21    22 2   
    35    21    34 1   
    36    22    23 1   
@<TRIPOS>SUBSTRUCTURE
     1 IMP         1 TEMP              0 ****  ****    0 ROOT
