@<TRIPOS>MOLECULE
IMQ
   38    40     1     0     0
SMALL
bcc


@<TRIPOS>ATOM
      1 C9           0.0000     0.0000     0.0000 ca         1 IMQ       0.389600
      2 N1           1.3360     0.0000     0.0000 nb         1 IMQ      -0.551000
      3 C10          2.0180     0.0000     1.1200 ca         1 IMQ       0.405200
      4 C2           1.3870    -0.0000     2.3620 ca         1 IMQ      -0.223300
      5 C3           0.0240     0.0000     2.4340 ca         1 IMQ      -0.058000
      6 C4          -0.7050     0.0000     1.2300 ca         1 IMQ      -0.148300
      7 C5          -2.1090     0.0010     1.2250 ca         1 IMQ      -0.087000
      8 C6          -2.7780     0.0010     0.0390 ca         1 IMQ      -0.097000
      9 C7          -2.0870     0.0010    -1.1710 ca         1 IMQ      -0.102000
     10 C8          -0.7270    -0.0060    -1.2040 ca         1 IMQ      -0.118600
     11 C1          -0.0010    -0.0120    -2.5240 c3         1 IMQ       0.170100
     12 N4'          0.4450    -1.3780    -2.8310 n3         1 IMQ      -0.504600
     13 C1'         -0.7060    -2.2660    -3.0920 c3         1 IMQ       0.120800
     14 C2'         -0.2010    -3.2650    -4.1630 c3         1 IMQ       0.162100
     15 O2'          0.5620    -4.3150    -3.5650 oh         1 IMQ      -0.546800
     16 C3'          0.6980    -2.3550    -5.0420 c3         1 IMQ       0.155100
     17 O3'          1.7070    -3.1240    -5.6980 oh         1 IMQ      -0.558800
     18 C4'          1.3270    -1.3920    -4.0130 c3         1 IMQ       0.117500
     19 C5'          1.4230     0.0150    -4.6080 c3         1 IMQ       0.182400
     20 O5'          0.1470     0.4040    -5.1200 oh         1 IMQ      -0.602800
     21 H10          3.1000    -0.0000     1.0780 h4         1 IMQ      -0.023900
     22 H2           1.9780    -0.0000     3.2700 ha         1 IMQ       0.110000
     23 H3          -0.4830    -0.0000     3.3920 ha         1 IMQ       0.109000
     24 H5          -2.6580     0.0010     2.1590 ha         1 IMQ       0.105000
     25 H6          -3.8620     0.0060     0.0360 ha         1 IMQ       0.101000
     26 H7          -2.6420     0.0010    -2.1020 ha         1 IMQ       0.106000
     27 H1          -0.6680     0.3330    -3.3050 h1         1 IMQ       0.042200
     28 H1A          0.8590     0.6440    -2.4670 h1         1 IMQ       0.042200
     29 H1'         -1.5420    -1.6940    -3.4770 h1         1 IMQ       0.023700
     30 H1'A        -0.9860    -2.7940    -2.1890 h1         1 IMQ       0.023700
     31 H2'         -1.0280    -3.6600    -4.7410 h1         1 IMQ      -0.000300
     32 HO2'         0.0690    -5.1180    -3.5940 ho         1 IMQ       0.380000
     33 H3'          0.0990    -1.8070    -5.7590 h1         1 IMQ       0.025700
     34 HO3'         1.4930    -3.2090    -6.6120 ho         1 IMQ       0.379000
     35 H4'          2.3110    -1.7470    -3.7320 h1         1 IMQ       0.068700
     36 H5'          2.1510     0.0180    -5.4110 h1         1 IMQ       0.006200
     37 H5'A         1.7320     0.7120    -3.8380 h1         1 IMQ       0.006200
     38 HO5'         0.2560     1.1200    -5.7230 ho         1 IMQ       0.391000
@<TRIPOS>BOND
     1     1     2 ar  
     2     1     6 ar  
     3     1    10 ar  
     4     2     3 ar  
     5     3     4 ar  
     6     3    21 1   
     7     4     5 ar  
     8     4    22 1   
     9     5     6 ar  
    10     5    23 1   
    11     6     7 ar  
    12     7     8 ar  
    13     7    24 1   
    14     8     9 ar  
    15     8    25 1   
    16     9    10 ar  
    17     9    26 1   
    18    10    11 1   
    19    11    12 1   
    20    11    27 1   
    21    11    28 1   
    22    12    13 1   
    23    12    18 1   
    24    13    14 1   
    25    13    29 1   
    26    13    30 1   
    27    14    15 1   
    28    14    16 1   
    29    14    31 1   
    30    15    32 1   
    31    16    17 1   
    32    16    18 1   
    33    16    33 1   
    34    17    34 1   
    35    18    19 1   
    36    18    35 1   
    37    19    20 1   
    38    19    36 1   
    39    19    37 1   
    40    20    38 1   
@<TRIPOS>SUBSTRUCTURE
     1 IMQ         1 TEMP              0 ****  ****    0 ROOT
