@<TRIPOS>MOLECULE
IMR
   20    20     1     0     0
SMALL
bcc


@<TRIPOS>ATOM
      1 O5'          0.0000     0.0000     0.0000 oh         1 IMR      -0.587800
      2 C5'          1.4280     0.0000     0.0000 c3         1 IMR       0.235400
      3 C4'          1.9390     0.0000     1.4420 c3         1 IMR       0.082500
      4 N4'          1.4890    -1.2250     2.1360 n7         1 IMR      -0.567200
      5 C3'          3.4780    -0.0090     1.4530 c3         1 IMR       0.173100
      6 O3'          3.9840     1.1410     2.1320 oh         1 IMR      -0.558800
      7 C2'          3.8640    -1.2990     2.2200 c3         1 IMR       0.171100
      8 O2'          4.9860    -1.0660     3.0730 oh         1 IMR      -0.558800
      9 C1'          2.5940    -1.6010     3.0530 c3         1 IMR       0.117800
     10 HO'5        -0.3140     0.1380    -0.8780 ho         1 IMR       0.388000
     11 H5'1         1.7880     0.8840    -0.5110 h1         1 IMR      -0.013800
     12 H5'2         1.7880    -0.8840    -0.5110 h1         1 IMR      -0.013800
     13 H4'          1.5740     0.8740     1.9680 h1         1 IMR       0.039700
     14 HN'4         0.6660    -1.0240     2.6690 hn         1 IMR       0.264800
     15 H3'          3.8570    -0.0500     0.4400 h1         1 IMR       0.004700
     16 HO'3         4.5080     1.6520     1.5380 ho         1 IMR       0.386000
     17 H2'          4.0640    -2.1070     1.5270 h1         1 IMR       0.011700
     18 HO'2         5.6040    -1.7730     2.9800 ho         1 IMR       0.382000
     19 H1'1         2.5710    -0.9900     3.9470 h1         1 IMR       0.022700
     20 H1'2         2.5420    -2.6540     3.3000 h1         1 IMR       0.022700
@<TRIPOS>BOND
     1     1     2 1   
     2     1    10 1   
     3     2     3 1   
     4     2    11 1   
     5     2    12 1   
     6     3     4 1   
     7     3     5 1   
     8     3    13 1   
     9     4     9 1   
    10     4    14 1   
    11     5     6 1   
    12     5     7 1   
    13     5    15 1   
    14     6    16 1   
    15     7     8 1   
    16     7     9 1   
    17     7    17 1   
    18     8    18 1   
    19     9    19 1   
    20     9    20 1   
@<TRIPOS>SUBSTRUCTURE
     1 IMR         1 TEMP              0 ****  ****    0 ROOT
