@<TRIPOS>MOLECULE
molecule
   55    57     1     0     0
SMALL
bcc


@<TRIPOS>ATOM
      1 C2           0.0000     0.0000     0.0000 ca         1 IMS      -0.118000
      2 C3           1.3820     0.0000     0.0000 ca         1 IMS       0.098100
      3 C4           2.0840     0.0000     1.2020 ca         1 IMS      -0.198000
      4 C5           1.4120    -0.0000     2.4060 ca         1 IMS      -0.099000
      5 C6           3.4520    -0.0010    -0.8550 c3         1 IMS       0.107700
      6 C7          -2.1110    -0.0000     1.5750 cc         1 IMS      -0.131400
      7 C8          -2.1790    -0.0010     2.9130 cd         1 IMS       0.020400
      8 O2          -3.0560     2.3420     0.7990 o          1 IMS      -0.598100
      9 C18         -3.6650     1.4200     0.3010 c          1 IMS       0.651100
     10 N2          -4.6900     1.6660    -0.5400 ns         1 IMS      -0.579900
     11 C19         -5.0690     3.0470    -0.8490 c3         1 IMS       0.123700
     12 C21         -5.7670     3.0920    -2.2090 c3         1 IMS      -0.094400
     13 C22         -4.7770     2.6870    -3.3040 c3         1 IMS      -0.094100
     14 C20         -6.0190     3.5690     0.2300 c3         1 IMS       0.119400
     15 O3          -7.2390     2.8250     0.1900 oh         1 IMS      -0.618800
     16 C17         -3.2760    -0.0010     0.6190 c3         1 IMS      -0.076200
     17 C1          -0.6880    -0.0060     1.2130 ca         1 IMS      -0.042800
     18 C16         -3.4550    -0.0020     3.7140 c3         1 IMS      -0.036900
     19 N           -0.9130    -0.0010     3.4460 n          1 IMS      -0.265200
     20 C            0.0220    -0.0000     2.4250 ca         1 IMS      -0.011400
     21 O            2.0600    -0.0000    -1.1780 os         1 IMS      -0.299900
     22 O1          -0.4150     1.0470     5.3400 o          1 IMS      -0.496100
     23 C10         -0.5660    -1.2780     5.5040 ca         1 IMS      -0.181600
     24 C15         -0.7000    -2.4900     4.8250 ca         1 IMS      -0.063500
     25 C14         -0.6380    -3.6780     5.5220 ca         1 IMS      -0.139500
     26 C13         -0.4540    -3.6690     6.8950 ca         1 IMS       0.059400
     27 Cl          -0.3830    -5.1690     7.7670 cl         1 IMS      -0.097400
     28 C12         -0.3260    -2.4690     7.5760 ca         1 IMS      -0.139500
     29 C11         -0.3800    -1.2750     6.8880 ca         1 IMS      -0.063500
     30 H2          -0.5450    -0.0000    -0.9360 ha         1 IMS       0.145000
     31 H4           3.1670     0.0000     1.1920 ha         1 IMS       0.145000
     32 H5           1.9670    -0.0000     3.3370 ha         1 IMS       0.134000
     33 H61          4.0350    -0.0020    -1.7680 h1         1 IMS       0.042700
     34 H62          3.6880    -0.8860    -0.2760 h1         1 IMS       0.042700
     35 H63          3.6890     0.8830    -0.2770 h1         1 IMS       0.042700
     36 HN2         -5.2010     0.9040    -0.9410 hn         1 IMS       0.317500
     37 H19         -4.1810     3.6670    -0.8790 h1         1 IMS       0.087700
     38 H211        -6.6040     2.4050    -2.2080 hc         1 IMS       0.055700
     39 H212        -6.1240     4.0970    -2.3990 hc         1 IMS       0.055700
     40 H221        -5.1030     3.0940    -4.2540 hc         1 IMS       0.035367
     41 H222        -3.7950     3.0750    -3.0640 hc         1 IMS       0.035367
     42 H223        -4.7330     1.6070    -3.3700 hc         1 IMS       0.035367
     43 H201        -5.5580     3.4550     1.2040 h1         1 IMS       0.033700
     44 H202        -6.2290     4.6170     0.0510 h1         1 IMS       0.033700
     45 HO3         -7.7870     3.0820     0.9140 ho         1 IMS       0.402000
     46 H171        -4.1160    -0.5120     1.0740 hc         1 IMS       0.064700
     47 H172        -2.9940    -0.5120    -0.2940 hc         1 IMS       0.064700
     48 H161        -3.9570     0.9510     3.5950 hc         1 IMS       0.054700
     49 H162        -4.1020    -0.7970     3.3620 hc         1 IMS       0.054700
     50 H163        -3.2250    -0.1610     4.7600 hc         1 IMS       0.054700
     51 H15         -0.8440    -2.4980     3.7510 ha         1 IMS       0.158000
     52 H14         -0.7420    -4.6190     4.9970 ha         1 IMS       0.151500
     53 H12         -0.1820    -2.4690     8.6500 ha         1 IMS       0.151500
     54 H11         -0.2810    -0.3370     7.4210 ha         1 IMS       0.158000
     55 C9          -0.6260    -0.0020     4.7630 c          1 IMS       0.709700
@<TRIPOS>BOND
     1     1     2 ar
     2     1    17 ar
     3     1    30 1
     4     2     3 ar
     5     2    21 1
     6     3     4 ar
     7     3    31 1
     8     4    20 ar
     9     4    32 1
    10     5    21 1
    11     5    33 1
    12     5    34 1
    13     5    35 1
    14     6     7 2
    15     6    16 1
    16     6    17 1
    17     7    18 1
    18     7    19 1
    19    55    19 1
    20    55    22 2
    21    55    23 1
    22     8     9 2
    23     9    10 1
    24     9    16 1
    25    10    11 1
    26    10    36 1
    27    11    12 1
    28    11    14 1
    29    11    37 1
    30    12    13 1
    31    12    38 1
    32    12    39 1
    33    13    40 1
    34    13    41 1
    35    13    42 1
    36    14    15 1
    37    14    43 1
    38    14    44 1
    39    15    45 1
    40    16    46 1
    41    16    47 1
    42    17    20 ar
    43    18    48 1
    44    18    49 1
    45    18    50 1
    46    19    20 1
    47    23    24 ar
    48    23    29 ar
    49    24    25 ar
    50    24    51 1
    51    25    26 ar
    52    25    52 1
    53    26    27 1
    54    26    28 ar
    55    28    29 ar
    56    28    53 1
    57    29    54 1
@<TRIPOS>SUBSTRUCTURE
     1 IMS         1 TEMP              0 ****  ****    0 ROOT
