@<TRIPOS>MOLECULE
IMT
   16    16     1     0     0
SMALL
bcc


@<TRIPOS>ATOM
      1 N            0.0000     0.0000     0.0000 nv         1 IMT      -0.601500
      2 CA           1.3500     0.0000     0.0000 cc         1 IMT       0.348200
      3 NB1          2.0990     0.0000     1.1510 nc         1 IMT      -0.572000
      4 CB           2.1540     0.0010    -1.1160 cd         1 IMT      -0.491600
      5 CG1          3.3470     0.0020     0.7370 cd         1 IMT       0.224000
      6 NG2          3.4300     0.0030    -0.6270 na         1 IMT       0.309100
      7 CD           4.6370     0.0080    -1.4190 c3         1 IMT      -0.009400
      8 C            4.4480     0.0030     1.6470 c          1 IMT       0.861100
      9 O            5.6620     0.0040     1.3440 o          1 IMT      -0.876800
     10 OXT          4.0680     0.0050     2.9650 o          1 IMT      -0.876800
     11 HN2         -0.5000    -0.8540     0.1490 hn         1 IMT       0.245800
     12 H           -0.5000     0.8580    -0.1260 hn         1 IMT       0.245800
     13 HB           1.8550    -0.2880    -2.1160 h4         1 IMT       0.138000
     14 HD1          5.2320     0.8770    -1.1660 h1         1 IMT       0.019033
     15 HD2          5.2060    -0.8910    -1.2150 h1         1 IMT       0.019033
     16 HD3          4.3790     0.0410    -2.4710 h1         1 IMT       0.019033
@<TRIPOS>BOND
     1     1     2 1   
     2     1    11 1   
     3     1    12 1   
     4     2     3 1   
     5     2     4 2   
     6     3     5 2   
     7     4     6 1   
     8     4    13 1   
     9     5     6 1   
    10     5     8 1   
    11     6     7 1   
    12     7    14 1   
    13     7    15 1   
    14     7    16 1   
    15     8     9 1   
    16     8    10 1   
@<TRIPOS>SUBSTRUCTURE
     1 IMT         1 TEMP              0 ****  ****    0 ROOT
