@<TRIPOS>MOLECULE
IMU
   38    38     1     0     0
SMALL
bcc


@<TRIPOS>ATOM
      1 P          -1.0330    0.9270   -0.3640 p5        1 IMU      1.893000
      2 C2         -4.3420   -9.2610   -1.3280 c2        1 IMU      0.145000
      3 O1P         0.1600    1.5520   -0.9760 o         1 IMU     -0.839000
      4 O2P        -1.2160    0.6010    1.0630 o         1 IMU     -0.839000
      5 O3P        -2.2570    1.8840   -0.8760 oh        1 IMU     -0.810000
      6 O5'        -1.3890   -0.3960   -1.2920 os        1 IMU     -0.691000
      7 C5'        -2.2540   -1.3060   -0.7680 c2        1 IMU      0.018000
      8 C4'        -2.6660   -2.3610   -1.4920 c2        1 IMU     -0.282000
      9 N4'        -0.9160   -4.6790   -0.8370 n3        1 IMU     -0.342000
     10 C3'        -3.6150   -3.3980   -0.9630 c3        1 IMU      0.184000
     11 O3'        -4.9570   -3.0440   -1.3190 oh        1 IMU     -0.364000
     12 C2'        -3.3030   -4.7650   -1.4440 c2        1 IMU     -0.587000
     13 O2'        -4.3750   -5.4990   -1.8920 oh        1 IMU     -0.262000
     14 C1'        -2.1060   -5.4970   -1.0600 c3        1 IMU      0.128000
     15 C9         -2.3010   -6.4350    0.2260 c3        1 IMU     -0.146000
     16 C8         -2.8730   -5.6950    1.4110 c2        1 IMU     -0.055000
     17 N7         -4.0440   -6.1040    1.8260 n2        1 IMU     -0.132000
     18 C5         -4.4420   -7.1890    0.9650 c2        1 IMU     -0.282000
     19 C6         -5.6310   -7.7670    1.0630 c1        1 IMU      0.331000
     20 O6         -6.6810   -8.3080    1.1960 o         1 IMU     -0.165000
     21 N1         -4.2600  -10.5660   -1.4660 n2        1 IMU     -0.374000
     22 N3         -3.2510   -8.4240   -0.9200 n2        1 IMU     -0.271000
     23 C4         -3.3700   -7.4870   -0.0370 c2        1 IMU      0.151000
     24 H5'1       -0.7170   -4.1940   -1.6940 hn        1 IMU      0.136500
     25 H5'2       -2.0530    2.2930   -1.7080 ho        1 IMU      0.217000
     26 H4'        -2.5560   -1.1070    0.2770 h4        1 IMU      0.137000
     27 HN4'       -2.3330   -2.5080   -2.5270 ha        1 IMU      0.119000
     28 H3'        -1.1270   -3.9730   -0.1530 hn        1 IMU      0.136500
     29 HO3'       -3.6310   -3.3450    0.1720 h1        1 IMU      0.030000
     30 H2'        -5.1110   -3.4130   -2.1970 ho        1 IMU      0.194000
     31 HO2'       -4.8940   -5.7470   -1.0970 ho        1 IMU      0.087000
     32 H1'        -1.8450   -6.2540   -1.8630 h1        1 IMU      0.067000
     33 H8         -1.3150   -6.9010    0.4690 hc        1 IMU      0.121000
     34 HN7        -2.3560   -4.8420    1.8670 h4        1 IMU      0.173000
     35 HN1        -3.4050  -10.9580   -1.1350 hn        1 IMU      0.135000
     36 HN21       -6.1700   -9.1270   -2.2410 hn        1 IMU      0.196500
     37 HN22       -5.4290   -7.6620   -1.9880 hn        1 IMU      0.196500
     38 N2         -5.5670   -8.5960   -1.6500 n3        1 IMU     -0.356000
@<TRIPOS>BOND
     1    1    3 1
     2    1    4 1
     3    1    5 1
     4    1    6 1
     5    2   21 1
     6    2   22 1
     7    2   38 1
     8    5   25 1
     9    6    7 1
    10    7    8 1
    11    7   26 1
    12    8   10 1
    13    8   27 1
    14    9   14 1
    15    9   24 1
    16    9   28 1
    17   10   11 1
    18   10   12 1
    19   10   29 1
    20   11   30 1
    21   12   13 1
    22   12   14 1
    23   13   31 1
    24   14   15 1
    25   14   32 1
    26   15   16 1
    27   15   23 1
    28   15   33 1
    29   16   17 1
    30   16   34 1
    31   17   18 1
    32   18   19 1
    33   18   23 1
    34   19   20 1
    35   21   35 1
    36   22   23 1
    37   36   38 1
    38   37   38 1
@<TRIPOS>SUBSTRUCTURE
     1 IMU         1 TEMP              0 ****  ****    0 ROOT
