@<TRIPOS>MOLECULE
IMV
   35    38     1     0     0
SMALL
bcc


@<TRIPOS>ATOM
      1 O1           0.0000     0.0000     0.0000 o          1 IMV      -0.875800
      2 C2           1.3470     0.0000     0.0000 c          1 IMV       0.972200
      3 O3           1.9550     0.0000     1.0520 o          1 IMV      -0.875800
      4 C4           2.0850    -0.0010    -1.2760 ca         1 IMV      -0.040600
      5 C5           2.3470    -1.2060    -1.9360 ca         1 IMV      -0.092300
      6 C6           1.8780    -2.5090    -1.3410 c3         1 IMV       0.091300
      7 N7           2.3930    -3.6240    -2.1390 n          1 IMV       0.034000
      8 C8           3.6030    -4.1770    -1.9580 c          1 IMV       0.616500
      9 O9           4.4300    -3.8490    -1.1330 o          1 IMV      -0.640500
     10 C10          3.7420    -5.2880    -2.9780 c3         1 IMV      -0.054100
     11 C11          2.4350    -5.2570    -3.7350 ca         1 IMV      -0.169300
     12 C12          1.9390    -6.0060    -4.7780 ca         1 IMV      -0.053000
     13 C13          0.6760    -5.7430    -5.2780 ca         1 IMV      -0.147000
     14 C14         -0.0840    -4.7260    -4.7270 ca         1 IMV      -0.075000
     15 C15          0.4110    -3.9730    -3.6830 ca         1 IMV      -0.112000
     16 C16          1.6800    -4.2370    -3.1690 ca         1 IMV      -0.063400
     17 C17          3.0370    -1.2020    -3.1280 ca         1 IMV      -0.133000
     18 C18          3.4720    -0.0090    -3.6810 ca         1 IMV      -0.114000
     19 C19          3.2200     1.1930    -3.0420 ca         1 IMV       0.025100
     20 O20          3.5370     2.4790    -3.3740 os         1 IMV      -0.336900
     21 C21          3.3870     3.2370    -2.1600 c3         1 IMV       0.420200
     22 O22          2.4060     2.4940    -1.4120 os         1 IMV      -0.288900
     23 C23          2.5190     1.2050    -1.8380 ca         1 IMV       0.084100
     24 H6           0.7950    -2.5350    -1.3400 h1         1 IMV       0.065200
     25 H6A          2.2420    -2.5940    -0.3240 h1         1 IMV       0.065200
     26 H10          4.5710    -5.0870    -3.6460 hc         1 IMV       0.044200
     27 H10A         3.8690    -6.2430    -2.4820 hc         1 IMV       0.044200
     28 H12          2.5370    -6.8010    -5.2070 ha         1 IMV       0.094000
     29 H13          0.2820    -6.3310    -6.0980 ha         1 IMV       0.098000
     30 H14         -1.0730    -4.5200    -5.1180 ha         1 IMV       0.099000
     31 H15         -0.1900    -3.1790    -3.2560 ha         1 IMV       0.128000
     32 H17          3.2400    -2.1360    -3.6370 ha         1 IMV       0.099000
     33 H18          4.0130    -0.0160    -4.6200 ha         1 IMV       0.093000
     34 H21          3.0050     4.2250    -2.3880 h2         1 IMV       0.001200
     35 H21A         4.3260     3.2540    -1.6190 h2         1 IMV       0.001200
@<TRIPOS>BOND
     1     1     2 1   
     2     2     3 1   
     3     2     4 1   
     4     4     5 ar  
     5     4    23 ar  
     6     5     6 1   
     7     5    17 ar  
     8     6     7 1   
     9     6    24 1   
    10     6    25 1   
    11     7     8 1   
    12     7    16 1   
    13     8     9 2   
    14     8    10 1   
    15    10    11 1   
    16    10    26 1   
    17    10    27 1   
    18    11    12 ar  
    19    11    16 ar  
    20    12    13 ar  
    21    12    28 1   
    22    13    14 ar  
    23    13    29 1   
    24    14    15 ar  
    25    14    30 1   
    26    15    16 ar  
    27    15    31 1   
    28    17    18 ar  
    29    17    32 1   
    30    18    19 ar  
    31    18    33 1   
    32    19    20 1   
    33    19    23 ar  
    34    20    21 1   
    35    21    22 1   
    36    21    34 1   
    37    21    35 1   
    38    22    23 1   
@<TRIPOS>SUBSTRUCTURE
     1 IMV         1 TEMP              0 ****  ****    0 ROOT
