@<TRIPOS>MOLECULE
molecule
   24    24     1     0     0
SMALL
bcc


@<TRIPOS>ATOM
      1 CAA          0.0000     0.0000     0.0000 cc         1 IMW      -0.135400
      2 CAB          1.3400     0.0000     0.0000 cd         1 IMW      -0.201200
      3 CAC          2.0790     0.0000     1.2790 c          1 IMW       0.554500
      4 CAD          1.3410     0.0000     2.5580 cc         1 IMW      -0.127400
      5 CAE          0.0020     0.0010     2.5590 cd         1 IMW      -0.200200
      6 CAF         -0.7380     0.0000     1.2800 c          1 IMW       0.551500
      7 CAG         -0.7550     0.0060    -1.3040 c3         1 IMW      -0.048900
      8 CAH          2.0950    -0.0000     3.8630 c3         1 IMW      -0.029500
      9 CAI          2.9750    -1.2500     3.9440 c3         1 IMW      -0.090100
     10 OAJ         -1.9520    -0.0000     1.2810 o          1 IMW      -0.495100
     11 OAK          3.2940     0.0000     1.2780 o          1 IMW      -0.497100
     12 CAL          2.9750     1.2490     3.9440 c3         1 IMW      -0.090100
     13 HAB          1.8820    -0.0000    -0.9380 ha         1 IMW       0.160000
     14 HAE         -0.5390     0.0010     3.4970 ha         1 IMW       0.161000
     15 HAG         -0.0520    -0.0130    -2.1280 hc         1 IMW       0.056367
     16 HAGA        -1.3600     0.9020    -1.3670 hc         1 IMW       0.056367
     17 HAGB        -1.3950    -0.8660    -1.3550 hc         1 IMW       0.056367
     18 HAH          1.3910     0.0000     4.6870 hc         1 IMW       0.056700
     19 HAI          3.3350    -1.3730     4.9580 hc         1 IMW       0.044367
     20 HAIA         2.3940    -2.1190     3.6600 hc         1 IMW       0.044367
     21 HAIB         3.8170    -1.1430     3.2720 hc         1 IMW       0.044367
     22 HAL          2.3960     2.1180     3.6580 hc         1 IMW       0.044367
     23 HALA         3.3350     1.3720     4.9590 hc         1 IMW       0.044367
     24 HALB         3.8190     1.1400     3.2730 hc         1 IMW       0.044367
@<TRIPOS>BOND
     1     1     2 2
     2     1     6 1
     3     1     7 1
     4     2     3 1
     5     3     4 1
     6     3    11 2
     7     4     5 2
     8     4     8 1
     9     5     6 1
    10     6    10 2
    11     8     9 1
    12     8    12 1
    13     2    13 1
    14     5    14 1
    15     7    15 1
    16     7    16 1
    17     7    17 1
    18     8    18 1
    19     9    19 1
    20     9    20 1
    21     9    21 1
    22    12    22 1
    23    12    23 1
    24    12    24 1
@<TRIPOS>SUBSTRUCTURE
     1 IMW         1 TEMP              0 ****  ****    0 ROOT
