@<TRIPOS>MOLECULE
IMW
   24    24     1     0     0
SMALL
bcc


@<TRIPOS>ATOM
      1 CAA         0.0290    0.0060   -0.0300 cc        1 IMW     -0.118400
      2 CAB         1.3710    0.0060    0.0000 cd        1 IMW     -0.206200
      3 CAC         2.1510    0.0020    1.2540 c         1 IMW      0.553500
      4 CAD         1.3690   -0.0010    2.5200 cc        1 IMW     -0.110400
      5 CAE         0.0250   -0.0020    2.4850 cd        1 IMW     -0.204200
      6 CAF        -0.7550    0.0010    1.2330 c         1 IMW      0.546500
      7 CAG        -0.7500    0.0100   -1.2880 c3        1 IMW     -0.066900
      8 CAH         2.1020   -0.0030    3.8270 c3        1 IMW     -0.027500
      9 CAI         2.9510   -1.2510    3.9760 c3        1 IMW     -0.095100
     10 OAJ        -1.9910   -0.0020    1.2410 o         1 IMW     -0.498100
     11 OAK         3.3880    0.0010    1.2230 o         1 IMW     -0.500100
     12 CAL         2.9510    1.2440    3.9800 c3        1 IMW     -0.095100
     13 HAB         1.9720    0.0090   -0.9250 ha        1 IMW      0.159000
     14 HAE        -0.5800   -0.0040    3.4090 ha        1 IMW      0.158000
     15 HAG        -0.0840    0.0090   -2.1850 hc        1 IMW      0.060033
     16 HAGA       -1.4060    0.9170   -1.3230 hc        1 IMW      0.060033
     17 HAGB       -1.4130   -0.8910   -1.3250 hc        1 IMW      0.060033
     18 HAH         1.3360   -0.0040    4.6590 hc        1 IMW      0.051700
     19 HAI         3.7470   -1.2800    3.1930 hc        1 IMW      0.045367
     20 HAIA        2.3200   -2.1670    3.8830 hc        1 IMW      0.045367
     21 HAIB        3.4390   -1.2550    4.9810 hc        1 IMW      0.045367
     22 HAL         2.3210    2.1610    3.8890 hc        1 IMW      0.045367
     23 HALA        3.4390    1.2450    4.9840 hc        1 IMW      0.045367
     24 HALB        3.7470    1.2750    3.1960 hc        1 IMW      0.045367
@<TRIPOS>BOND
     1    1    2 2   
     2    1    6 1   
     3    1    7 1   
     4    2    3 1   
     5    2   13 1   
     6    3    4 1   
     7    3   11 2   
     8    4    5 2   
     9    4    8 1   
    10    5    6 1   
    11    5   14 1   
    12    6   10 2   
    13    7   15 1   
    14    7   16 1   
    15    7   17 1   
    16    8    9 1   
    17    8   12 1   
    18    8   18 1   
    19    9   19 1   
    20    9   20 1   
    21    9   21 1   
    22   12   22 1   
    23   12   23 1   
    24   12   24 1   
@<TRIPOS>SUBSTRUCTURE
     1 IMW         1 TEMP              0 ****  ****    0 ROOT
