@<TRIPOS>MOLECULE
IMX
   42    45     1     0     0
SMALL
bcc


@<TRIPOS>ATOM
      1 C1           0.0000     0.0000     0.0000 c3         1 IMX      -0.002300
      2 C2          -1.9380    -5.3480    -2.0170 ca         1 IMX      -0.098800
      3 C3          -2.0130    -5.3450    -0.6110 ca         1 IMX      -0.238200
      4 C4          -2.3350    -6.4850    -2.7320 ca         1 IMX      -0.071000
      5 C5          -2.4820    -6.4770     0.0510 ca         1 IMX      -0.074000
      6 C6          -2.7920    -7.5840    -2.0610 ca         1 IMX       0.061900
      7 C7          -2.8660    -7.5830    -0.6720 ca         1 IMX      -0.119000
      8 N8          -1.5660    -4.1190    -0.1770 na         1 IMX       0.379600
      9 C9          -1.2160    -3.3590    -1.2760 cc         1 IMX      -0.314300
     10 C10         -1.4380    -4.0810    -2.4060 cd         1 IMX      -0.084200
     11 C12         -0.6930    -1.9850    -1.2310 c          1 IMX       0.612300
     12 O13         -0.4150    -1.4060    -2.2630 o          1 IMX      -0.644100
     13 N14         -0.5220    -1.3680    -0.0450 ns         1 IMX      -0.167900
     14 C15          1.5440     0.0000     0.0000 c3         1 IMX       0.033900
     15 C16          1.9390     0.0000     1.4620 ca         1 IMX      -0.127300
     16 C17          0.8610     0.3850     2.2360 ca         1 IMX      -0.050300
     17 C18         -0.3320     0.6700     1.3500 c3         1 IMX       0.023600
     18 C19          3.1460    -0.3120     2.0640 ca         1 IMX      -0.110000
     19 C20          3.2770    -0.2400     3.4370 ca         1 IMX      -0.123000
     20 C21          2.1990     0.1460     4.2130 ca         1 IMX      -0.161000
     21 C22          0.9940     0.4570     3.6140 ca         1 IMX       0.015000
     22 C23         -0.5080     2.1780     1.1660 c3         1 IMX      -0.125400
     23 C24         -0.9500     2.7950     2.4680 c          1 IMX       0.981600
     24 O26         -1.1690     4.1170     2.5440 o          1 IMX      -0.901300
     25 O25         -1.1090     2.0990     3.4430 o          1 IMX      -0.901300
     26 H1          -0.3820     0.5920    -0.8230 h1         1 IMX       0.066700
     27 H5          -2.5440    -6.4870     1.1320 ha         1 IMX       0.103000
     28 H7          -3.2310    -8.4620    -0.1540 ha         1 IMX       0.112000
     29 HN8         -1.5020    -3.8270     0.7780 hn         1 IMX       0.121700
     30 H10         -1.2580    -3.7500    -3.4210 ha         1 IMX       0.143000
     31 HN14        -0.7840    -1.8320     0.8020 hn         1 IMX       0.165500
     32 H15          1.9070     0.9030    -0.4750 hc         1 IMX       0.025200
     33 H15A         1.9070    -0.9040    -0.4740 hc         1 IMX       0.025200
     34 H18         -1.2260     0.2300     1.7750 hc         1 IMX       0.042700
     35 H19          3.9920    -0.6090     1.4570 ha         1 IMX       0.089000
     36 H20          4.2150    -0.5090     3.9080 ha         1 IMX       0.086000
     37 H21          2.3020     0.2120     5.2890 ha         1 IMX       0.097000
     38 H22          0.3050     0.3290     4.4400 ha         1 IMX       0.122000
     39 H23          0.4340     2.6170     0.8600 hc         1 IMX       0.016200
     40 H23A        -1.2570     2.3640     0.4060 hc         1 IMX       0.016200
     41 F11         -3.1740    -8.6800    -2.7520 f          1 IMX      -0.137900
     42 H4          -2.2800    -6.4940    -3.8140 ha         1 IMX       0.115000
@<TRIPOS>BOND
     1     1    13 1   
     2     1    14 1   
     3     1    17 1   
     4     1    26 1   
     5     2     3 ar  
     6     2     4 ar  
     7     2    10 1   
     8     3     5 ar  
     9     3     8 1   
    10     4     6 ar  
    11     4    42 1   
    12     5     7 ar  
    13     5    27 1   
    14     6     7 ar  
    15     6    41 1   
    16     7    28 1   
    17     8     9 1   
    18     8    29 1   
    19     9    10 2   
    20     9    11 1   
    21    10    30 1   
    22    11    12 2   
    23    11    13 1   
    24    13    31 1   
    25    14    15 1   
    26    14    32 1   
    27    14    33 1   
    28    15    16 ar  
    29    15    18 ar  
    30    16    17 1   
    31    16    21 ar  
    32    17    22 1   
    33    17    34 1   
    34    18    19 ar  
    35    18    35 1   
    36    19    20 ar  
    37    19    36 1   
    38    20    21 ar  
    39    20    37 1   
    40    21    38 1   
    41    22    23 1   
    42    22    39 1   
    43    22    40 1   
    44    23    24 1   
    45    23    25 1   
@<TRIPOS>SUBSTRUCTURE
     1 IMX         1 TEMP              0 ****  ****    0 ROOT
