@<TRIPOS>MOLECULE
molecule
   42    45     1     0     0
SMALL
bcc


@<TRIPOS>ATOM
      1 C1           0.0000     0.0000     0.0000 c3         1 IMX       0.100700
      2 C2          -1.9380    -5.3480    -2.0170 ca         1 IMX      -0.093800
      3 C3          -2.0130    -5.3450    -0.6110 ca         1 IMX      -0.048200
      4 C4          -2.3350    -6.4850    -2.7320 ca         1 IMX      -0.117000
      5 C5          -2.4820    -6.4770     0.0510 ca         1 IMX      -0.117000
      6 C6          -2.7920    -7.5840    -2.0610 ca         1 IMX       0.094900
      7 C7          -2.8660    -7.5830    -0.6720 ca         1 IMX      -0.147000
      8 N8          -1.5660    -4.1190    -0.1770 na         1 IMX      -0.167400
      9 C9          -1.2160    -3.3590    -1.2760 cc         1 IMX      -0.110300
     10 C10         -1.4380    -4.0810    -2.4060 cd         1 IMX      -0.128200
     11 C12         -0.6930    -1.9850    -1.2310 c          1 IMX       0.684300
     12 O13         -0.4150    -1.4060    -2.2630 o          1 IMX      -0.600100
     13 N14         -0.5220    -1.3680    -0.0450 ns         1 IMX      -0.560900
     14 C15          1.5440     0.0000     0.0000 c3         1 IMX      -0.041100
     15 C16          1.9390     0.0000     1.4620 ca         1 IMX      -0.112300
     16 C17          0.8610     0.3850     2.2360 ca         1 IMX      -0.047300
     17 C18         -0.3320     0.6700     1.3500 c3         1 IMX      -0.014400
     18 C19          3.1460    -0.3120     2.0640 ca         1 IMX      -0.137000
     19 C20          3.2770    -0.2400     3.4370 ca         1 IMX      -0.147000
     20 C21          2.1990     0.1460     4.2130 ca         1 IMX      -0.176000
     21 C22          0.9940     0.4570     3.6140 ca         1 IMX      -0.024000
     22 C23         -0.5080     2.1780     1.1660 c3         1 IMX      -0.172400
     23 C24         -0.9500     2.7950     2.4680 c          1 IMX       0.894600
     24 O26         -1.1690     4.1170     2.5440 o          1 IMX      -0.850800
     25 O25         -1.1090     2.0990     3.4430 o          1 IMX      -0.850800
     26 H1          -0.3820     0.5920    -0.8230 h1         1 IMX       0.088700
     27 H5          -2.5440    -6.4870     1.1320 ha         1 IMX       0.132000
     28 H7          -3.2310    -8.4620    -0.1540 ha         1 IMX       0.140000
     29 HN8         -1.5020    -3.8270     0.7780 hn         1 IMX       0.304700
     30 H10         -1.2580    -3.7500    -3.4210 ha         1 IMX       0.172000
     31 HN14        -0.7840    -1.8320     0.8020 hn         1 IMX       0.308500
     32 H15          1.9070     0.9030    -0.4750 hc         1 IMX       0.056700
     33 H15A         1.9070    -0.9040    -0.4740 hc         1 IMX       0.056700
     34 H18         -1.2260     0.2300     1.7750 hc         1 IMX       0.069700
     35 H19          3.9920    -0.6090     1.4570 ha         1 IMX       0.110000
     36 H20          4.2150    -0.5090     3.9080 ha         1 IMX       0.108000
     37 H21          2.3020     0.2120     5.2890 ha         1 IMX       0.119000
     38 H22          0.3050     0.3290     4.4400 ha         1 IMX       0.149000
     39 H23          0.4340     2.6170     0.8600 hc         1 IMX       0.040700
     40 H23A        -1.2570     2.3640     0.4060 hc         1 IMX       0.040700
     41 F11         -3.1740    -8.6800    -2.7520 f          1 IMX      -0.152900
     42 H4          -2.2800    -6.4940    -3.8140 ha         1 IMX       0.144000
@<TRIPOS>BOND
     1     1    13 1
     2     1    14 1
     3     1    17 1
     4     2     3 ar
     5     2     4 ar
     6     2    10 1
     7     3     5 ar
     8     3     8 1
     9     4     6 ar
    10     5     7 ar
    11     6     7 ar
    12     6    41 1
    13     8     9 1
    14     9    10 2
    15     9    11 1
    16    11    12 2
    17    11    13 1
    18    14    15 1
    19    15    16 ar
    20    15    18 ar
    21    16    17 1
    22    16    21 ar
    23    17    22 1
    24    18    19 ar
    25    19    20 ar
    26    20    21 ar
    27    22    23 1
    28    23    25 1
    29    23    24 1
    30     1    26 1
    31     4    42 1
    32     5    27 1
    33     7    28 1
    34     8    29 1
    35    10    30 1
    36    13    31 1
    37    14    32 1
    38    14    33 1
    39    17    34 1
    40    18    35 1
    41    19    36 1
    42    20    37 1
    43    21    38 1
    44    22    39 1
    45    22    40 1
@<TRIPOS>SUBSTRUCTURE
     1 IMX         1 TEMP              0 ****  ****    0 ROOT
