@<TRIPOS>MOLECULE
molecule
   71    75     1     0     0
SMALL
bcc


@<TRIPOS>ATOM
      1 C1           0.0000     0.0000     0.0000 ce         1 IMY       0.520500
      2 N2           1.4150     0.0000     0.0000 n          1 IMY      -0.456300
      3 C3           1.8050     0.0000     1.4000 c3         1 IMY       0.143000
      4 C4           0.5560     0.6270     2.0570 c3         1 IMY       0.139800
      5 N5          -0.5680     0.2980     1.1320 n2         1 IMY      -0.579900
      6 C13          2.2010    -1.3780     1.9130 ca         1 IMY      -0.090300
      7 C14          3.0810    -1.4870     2.9860 ca         1 IMY      -0.097000
      8 C15          3.4430    -2.7490     3.4570 ca         1 IMY      -0.124500
      9 C16          2.9250    -3.8950     2.8530 ca         1 IMY       0.025400
     10 C17          2.0440    -3.7780     1.7770 ca         1 IMY      -0.124500
     11 C18          1.6810    -2.5160     1.3060 ca         1 IMY      -0.097000
     12 Cl16         3.3730    -5.4520     3.4330 cl         1 IMY      -0.110400
     13 C20         -0.4480    -0.8410     3.8420 ca         1 IMY      -0.100000
     14 C21         -0.6670    -1.1630     5.1810 ca         1 IMY      -0.125000
     15 C22         -0.1200    -0.3680     6.1880 ca         1 IMY       0.026400
     16 C23          0.6460     0.7500     5.8560 ca         1 IMY      -0.125000
     17 C24          0.8650     1.0730     4.5170 ca         1 IMY      -0.100000
     18 C19          0.3180     0.2770     3.5080 ca         1 IMY      -0.065300
     19 Cl22        -0.3910    -0.7650     7.8410 cl         1 IMY      -0.104400
     20 C28         -1.8490    -2.0480    -2.5770 ca         1 IMY      -0.323000
     21 C29         -1.1090    -1.7110    -1.4430 ca         1 IMY       0.228100
     22 C34         -0.7780    -0.3770    -1.1890 ca         1 IMY      -0.242900
     23 C25         -1.1940     0.6190    -2.0780 ca         1 IMY      -0.002000
     24 C26         -1.9340     0.2820    -3.2120 ca         1 IMY      -0.232000
     25 C27         -2.2620    -1.0510    -3.4610 ca         1 IMY       0.205100
     26 C31         -1.5570    -3.8460    -0.4960 c3         1 IMY       0.138100
     27 C32         -0.7800    -5.0770    -0.9350 c3         1 IMY      -0.107100
     28 C33         -2.0660    -3.9770     0.9320 c3         1 IMY      -0.107100
     29 O2          -2.9830    -1.3790    -4.5670 os         1 IMY      -0.319900
     30 C30         -3.2830    -2.7600    -4.7610 c3         1 IMY       0.126700
     31 C2           2.3750    -0.1640    -1.0260 c          1 IMY       0.818100
     32 O1           3.4830    -0.6610    -0.7980 o          1 IMY      -0.596100
     33 N1           1.9760     0.2410    -2.3080 n          1 IMY      -0.494800
     34 C5           2.8840     0.0820    -3.4430 c3         1 IMY       0.080000
     35 C6           3.2470     1.4410    -4.0360 c3         1 IMY       0.132300
     36 N3           2.0400     2.1920    -4.3940 n7         1 IMY      -0.814200
     37 C7           1.1720     2.3760    -3.2280 c3         1 IMY       0.132300
     38 C8           0.7780     1.0340    -2.6060 c3         1 IMY       0.080000
     39 H3           2.6410     0.6770     1.5280 h1         1 IMY       0.075700
     40 H4           0.6890     1.7010     2.0140 h1         1 IMY       0.065700
     41 H14          3.4820    -0.5960     3.4530 ha         1 IMY       0.150000
     42 H15          4.1280    -2.8390     4.2920 ha         1 IMY       0.141000
     43 H17          1.6420    -4.6680     1.3080 ha         1 IMY       0.141000
     44 H18          0.9980    -2.4230     0.4710 ha         1 IMY       0.150000
     45 H20         -0.8740    -1.4580     3.0600 ha         1 IMY       0.143000
     46 H21         -1.2620    -2.0310     5.4390 ha         1 IMY       0.144500
     47 H23          1.0710     1.3670     6.6380 ha         1 IMY       0.144500
     48 H24          1.4600     1.9410     4.2600 ha         1 IMY       0.143000
     49 H28         -2.1030    -3.0830    -2.7700 ha         1 IMY       0.150000
     50 H25         -0.9410     1.6540    -1.8860 ha         1 IMY       0.153000
     51 H26         -2.2550     1.0560    -3.8990 ha         1 IMY       0.155000
     52 H31         -2.4090    -3.7170    -1.1530 h1         1 IMY       0.046700
     53 H321         0.0600    -4.7730    -1.5500 hc         1 IMY       0.049700
     54 H322        -0.4160    -5.6050    -0.0620 hc         1 IMY       0.049700
     55 H323        -1.4290    -5.7290    -1.5070 hc         1 IMY       0.049700
     56 H331        -2.7760    -4.7930     0.9890 hc         1 IMY       0.049700
     57 H332        -2.5500    -3.0550     1.2290 hc         1 IMY       0.049700
     58 H333        -1.2330    -4.1770     1.5950 hc         1 IMY       0.049700
     59 H30         -3.8470    -2.8820    -5.6780 h1         1 IMY       0.044367
     60 H301        -2.3600    -3.3240    -4.8280 h1         1 IMY       0.044367
     61 H302        -3.8680    -3.1240    -3.9250 h1         1 IMY       0.044367
     62 H51          3.7880    -0.4120    -3.1090 h1         1 IMY       0.081950
     63 H52          2.4010    -0.5200    -4.2030 h1         1 IMY       0.081950
     64 H61          3.8480     1.2910    -4.9250 h1         1 IMY       0.038700
     65 H62          3.8140     2.0070    -3.3070 h1         1 IMY       0.038700
     66 HN3          2.3000     3.0870    -4.7600 hn         1 IMY       0.358800
     67 H71          1.6960     2.9680    -2.4880 h1         1 IMY       0.038700
     68 H72          0.2740     2.8980    -3.5360 h1         1 IMY       0.038700
     69 H81          0.2320     1.2130    -1.6870 h1         1 IMY       0.081950
     70 H82          0.1520     0.4880    -3.3010 h1         1 IMY       0.081950
     71 O3          -0.7160    -2.6990    -0.5910 os         1 IMY      -0.332900
@<TRIPOS>BOND
     1     1     2 1
     2     1     5 2
     3     1    22 1
     4     2     3 1
     5     2    31 1
     6     3     4 1
     7     3     6 1
     8     3    39 1
     9     4     5 1
    10     4    18 1
    11     4    40 1
    12     6     7 ar
    13     6    11 ar
    14     7     8 ar
    15     7    41 1
    16     8     9 ar
    17     8    42 1
    18     9    10 ar
    19     9    12 1
    20    10    11 ar
    21    10    43 1
    22    11    44 1
    23    13    14 ar
    24    13    18 ar
    25    13    45 1
    26    14    15 ar
    27    14    46 1
    28    15    16 ar
    29    15    19 1
    30    16    17 ar
    31    16    47 1
    32    17    18 ar
    33    17    48 1
    34    20    21 ar
    35    20    25 ar
    36    20    49 1
    37    21    22 ar
    38    21    71 1
    39    22    23 ar
    40    23    24 ar
    41    23    50 1
    42    24    25 ar
    43    24    51 1
    44    25    29 1
    45    71    26 1
    46    26    27 1
    47    26    28 1
    48    26    52 1
    49    27    53 1
    50    27    54 1
    51    27    55 1
    52    28    56 1
    53    28    57 1
    54    28    58 1
    55    29    30 1
    56    30    59 1
    57    30    60 1
    58    30    61 1
    59    31    32 2
    60    31    33 1
    61    33    34 1
    62    33    38 1
    63    34    35 1
    64    34    62 1
    65    34    63 1
    66    35    36 1
    67    35    64 1
    68    35    65 1
    69    36    37 1
    70    36    66 1
    71    37    38 1
    72    37    67 1
    73    37    68 1
    74    38    69 1
    75    38    70 1
@<TRIPOS>SUBSTRUCTURE
     1 IMY         1 TEMP              0 ****  ****    0 ROOT
