@<TRIPOS>MOLECULE
molecule
   75    79     1     0     0
SMALL
bcc


@<TRIPOS>ATOM
      1 C4           0.0000     0.0000     0.0000 c3         1 IMZ       0.157800
      2 C40         -0.5270    -1.2370    -0.6810 ca         1 IMZ      -0.062300
      3 C45         -1.6460    -1.1570    -1.4890 ca         1 IMZ      -0.106500
      4 C44         -2.1290    -2.2920    -2.1130 ca         1 IMZ      -0.105500
      5 C41          0.1120    -2.4500    -0.5010 ca         1 IMZ      -0.106500
      6 C42         -0.3750    -3.5860    -1.1200 ca         1 IMZ      -0.105500
      7 C43         -1.4940    -3.5070    -1.9290 ca         1 IMZ      -0.012900
      8 Br43        -2.1550    -5.0590    -2.7830 br         1 IMZ      -0.101100
      9 N3           1.4690     0.0000     0.0000 n2         1 IMZ      -0.608900
     10 C2           1.9150     0.0000     1.2140 ce         1 IMZ       0.542500
     11 C20          3.3550    -0.0000     1.5410 ca         1 IMZ      -0.191900
     12 C26          4.2260    -0.8760     0.8800 ca         1 IMZ       0.200100
     13 O26          3.7500    -1.7230    -0.0680 os         1 IMZ      -0.275900
     14 C27          4.8690    -2.4690    -0.5530 c3         1 IMZ       0.107400
     15 C28          4.3980    -3.4490    -1.6300 c3         1 IMZ      -0.097100
     16 C25          5.5750    -0.8690     1.1910 ca         1 IMZ      -0.269000
     17 C21          3.8510     0.8650     2.5180 ca         1 IMZ       0.004000
     18 C22          5.1950     0.8640     2.8210 ca         1 IMZ      -0.265000
     19 C23          6.0600    -0.0020     2.1590 ca         1 IMZ       0.175100
     20 O23          7.3840     0.0020     2.4630 os         1 IMZ      -0.295900
     21 C24          7.5800     1.0290     3.4360 c3         1 IMZ       0.104700
     22 N1           0.9280    -0.0060     2.1750 n          1 IMZ      -0.444300
     23 C10          1.1240    -0.0080     3.5080 c          1 IMZ       0.805100
     24 O10          2.1500    -0.4650     3.9710 o          1 IMZ      -0.621100
     25 N10          0.1800     0.4970     4.3280 n          1 IMZ      -0.507800
     26 C15          0.1300     0.1190     5.7500 c3         1 IMZ       0.113000
     27 C14          0.0170     1.3980     6.5860 c3         1 IMZ       0.117300
     28 N13         -1.1520     2.1700     6.1500 n3         1 IMZ      -0.652600
     29 C13         -1.2120     3.3630     7.0040 c3         1 IMZ       0.134800
     30 C16         -2.5950     4.0070     6.8850 c3         1 IMZ       0.147400
     31 O17         -3.5890     3.0900     7.3480 oh         1 IMZ      -0.591800
     32 C11         -0.8270     1.4490     3.8330 c3         1 IMZ       0.113000
     33 C12         -0.8830     2.6400     4.7870 c3         1 IMZ       0.117300
     34 C5          -0.3780     0.0000     1.4940 c3         1 IMZ       0.108000
     35 C50         -1.1630    -1.2380     1.8430 ca         1 IMZ      -0.088300
     36 C51         -2.5440    -1.2240     1.7700 ca         1 IMZ      -0.112000
     37 C52         -3.2640    -2.3590     2.0910 ca         1 IMZ      -0.099500
     38 C55         -0.5030    -2.3890     2.2320 ca         1 IMZ      -0.112000
     39 C54         -1.2220    -3.5230     2.5580 ca         1 IMZ      -0.099500
     40 C53         -2.6040    -3.5090     2.4850 ca         1 IMZ      -0.011900
     41 Br53        -3.5890    -5.0620     2.9230 br         1 IMZ      -0.094100
     42 H4          -0.3760     0.8940    -0.4830 h1         1 IMZ       0.082700
     43 H45         -2.1440    -0.2060    -1.6330 ha         1 IMZ       0.142500
     44 H44         -3.0060    -2.2300    -2.7460 ha         1 IMZ       0.143000
     45 H41          0.9880    -2.5110     0.1330 ha         1 IMZ       0.142500
     46 H42          0.1250    -4.5370    -0.9780 ha         1 IMZ       0.143000
     47 H271         5.5990    -1.7910    -0.9770 h1         1 IMZ       0.044700
     48 H272         5.3180    -3.0200     0.2650 h1         1 IMZ       0.044700
     49 H281         3.8310    -2.9150    -2.3820 hc         1 IMZ       0.048033
     50 H282         3.7730    -4.2090    -1.1780 hc         1 IMZ       0.048033
     51 H283         5.2590    -3.9180    -2.0930 hc         1 IMZ       0.048033
     52 H25          6.2520    -1.5430     0.6800 ha         1 IMZ       0.159000
     53 H21          3.1810     1.5410     3.0350 ha         1 IMZ       0.137000
     54 H22          5.5790     1.5370     3.5770 ha         1 IMZ       0.144000
     55 H241         7.0130     0.7950     4.3280 h1         1 IMZ       0.046033
     56 H242         7.2450     1.9770     3.0330 h1         1 IMZ       0.046033
     57 H243         8.6330     1.0950     3.6830 h1         1 IMZ       0.046033
     58 H151         1.0350    -0.4120     6.0180 h1         1 IMZ       0.064950
     59 H152        -0.7350    -0.5090     5.9290 h1         1 IMZ       0.064950
     60 H141        -0.0950     1.1360     7.6310 h1         1 IMZ       0.044700
     61 H142         0.9120     1.9940     6.4530 h1         1 IMZ       0.044700
     62 H131        -0.4560     4.0720     6.6890 h1         1 IMZ       0.046200
     63 H132        -1.0340     3.0790     8.0340 h1         1 IMZ       0.046200
     64 H161        -2.7900     4.2570     5.8490 h1         1 IMZ       0.020700
     65 H162        -2.6270     4.9080     7.4860 h1         1 IMZ       0.020700
     66 H17         -4.3930     3.5540     7.5130 ho         1 IMZ       0.397000
     67 H111        -0.5490     1.7890     2.8430 h1         1 IMZ       0.064950
     68 H112        -1.7970     0.9660     3.7980 h1         1 IMZ       0.064950
     69 H121         0.0670     3.1600     4.7670 h1         1 IMZ       0.044700
     70 H122        -1.6740     3.3120     4.4760 h1         1 IMZ       0.044700
     71 H5          -0.9330     0.8960     1.7450 h1         1 IMZ       0.077700
     72 H51         -3.0620    -0.3240     1.4620 ha         1 IMZ       0.143500
     73 H52         -4.3460    -2.3490     2.0340 ha         1 IMZ       0.146000
     74 H55          0.5790    -2.4000     2.2890 ha         1 IMZ       0.143500
     75 H54         -0.7050    -4.4240     2.8640 ha         1 IMZ       0.146000
@<TRIPOS>BOND
     1     1     2 1
     2     1     9 1
     3     1    34 1
     4     1    42 1
     5     2     3 ar
     6     2     5 ar
     7     3     4 ar
     8     3    43 1
     9     4     7 ar
    10     4    44 1
    11     5     6 ar
    12     5    45 1
    13     6     7 ar
    14     6    46 1
    15     7     8 1
    16     9    10 2
    17    10    11 1
    18    10    22 1
    19    11    12 ar
    20    11    17 ar
    21    12    13 1
    22    12    16 ar
    23    13    14 1
    24    14    15 1
    25    14    47 1
    26    14    48 1
    27    15    49 1
    28    15    50 1
    29    15    51 1
    30    16    19 ar
    31    16    52 1
    32    17    18 ar
    33    17    53 1
    34    18    19 ar
    35    18    54 1
    36    19    20 1
    37    20    21 1
    38    21    55 1
    39    21    56 1
    40    21    57 1
    41    22    23 1
    42    22    34 1
    43    23    24 2
    44    23    25 1
    45    25    26 1
    46    25    32 1
    47    26    27 1
    48    26    58 1
    49    26    59 1
    50    27    28 1
    51    27    60 1
    52    27    61 1
    53    28    29 1
    54    28    33 1
    55    29    30 1
    56    29    62 1
    57    29    63 1
    58    30    31 1
    59    30    64 1
    60    30    65 1
    61    31    66 1
    62    32    33 1
    63    32    67 1
    64    32    68 1
    65    33    69 1
    66    33    70 1
    67    34    35 1
    68    34    71 1
    69    35    36 ar
    70    35    38 ar
    71    36    37 ar
    72    36    72 1
    73    37    40 ar
    74    37    73 1
    75    38    39 ar
    76    38    74 1
    77    39    40 ar
    78    39    75 1
    79    40    41 1
@<TRIPOS>SUBSTRUCTURE
     1 IMZ         1 TEMP              0 ****  ****    0 ROOT
