@<TRIPOS>MOLECULE
molecule
   69    72     1     0     0
SMALL
bcc


@<TRIPOS>ATOM
      1 C1           0.0000     0.0000     0.0000 ca         1 IN0      -0.094300
      2 C7           1.5020     0.0000     0.0000 c3         1 IN0       0.219700
      3 C17          1.9940     1.2280    -0.7210 ca         1 IN0      -0.050300
      4 C28          2.3200     2.3490    -0.0190 ca         1 IN0      -0.059000
      5 C27          2.7770     3.4940    -0.6680 ca         1 IN0      -0.150000
      6 C26          2.9110     3.5250    -2.0230 ca         1 IN0      -0.152000
      7 C16          2.5840     2.3880    -2.7800 ca         1 IN0      -0.036000
      8 C29          2.7100     2.3820    -4.1800 ca         1 IN0      -0.115000
      9 C30          2.3830     1.2630    -4.8810 ca         1 IN0      -0.146000
     10 C31          1.9270     0.1170    -4.2320 ca         1 IN0      -0.141000
     11 C33          1.7920     0.0850    -2.8780 ca         1 IN0      -0.124000
     12 C15          2.1240     1.2220    -2.1190 ca         1 IN0      -0.019000
     13 O6           2.0180     0.0000     1.3280 os         1 IN0      -0.310600
     14 C5           1.2800    -0.9440     2.0930 c3         1 IN0       0.084100
     15 C14          2.0360    -1.2270     3.3930 c3         1 IN0      -0.150400
     16 C11          2.2420     0.0630     4.1450 c          1 IN0       0.667100
     17 O58          1.8270     1.1050     3.6860 o          1 IN0      -0.656100
     18 N23          2.8890     0.0580     5.3280 ns         1 IN0      -0.481900
     19 C38          3.0890     1.3110     6.0580 c3         1 IN0       0.031700
     20 C61          3.1260     1.0250     7.5610 c3         1 IN0      -0.181400
     21 C62          1.8230     0.4000     7.9850 c          1 IN0       0.885600
     22 O64          1.6280     0.0620     9.2690 o          1 IN0      -0.878300
     23 O63          0.9540     0.2030     7.1690 o          1 IN0      -0.878300
     24 C60          4.3920     1.9370     5.6340 c          1 IN0       0.887600
     25 O66          4.5210     3.1380     5.6550 o          1 IN0      -0.874800
     26 O65          5.4110     1.1590     5.2340 o          1 IN0      -0.874800
     27 C4           1.0810    -2.2340     1.3550 c          1 IN0       0.667500
     28 O13          1.8280    -3.1700     1.5490 o          1 IN0      -0.619500
     29 N3           0.0660    -2.3490     0.4710 n          1 IN0      -0.404000
     30 C2          -0.6820    -1.1850     0.2210 ca         1 IN0       0.074600
     31 C8          -2.0690    -1.2130     0.2160 ca         1 IN0      -0.154000
     32 C9          -2.7720    -0.0450    -0.0140 ca         1 IN0      -0.106000
     33 C20         -2.0900     1.1410    -0.2330 ca         1 IN0      -0.027600
     34 Cl36        -2.9780     2.6050    -0.5170 cl         1 IN0      -0.128400
     35 C21         -0.7080     1.1630    -0.2260 ca         1 IN0      -0.067000
     36 C43         -0.2340    -3.6170    -0.1980 c3         1 IN0       0.124000
     37 C10          0.4480    -3.6460    -1.5670 c3         1 IN0      -0.092000
     38 C32          0.1980    -5.0020    -2.2330 c3         1 IN0      -0.087433
     39 C25          1.9520    -3.4330    -1.3940 c3         1 IN0      -0.087433
     40 C24         -0.1270    -2.5340    -2.4460 c3         1 IN0      -0.087433
     41 H7           1.8550    -0.8850    -0.5160 h1         1 IN0       0.052700
     42 H28          2.4820     2.8170     0.9440 ha         1 IN0       0.204000
     43 H27          3.0960     4.4410    -0.2510 ha         1 IN0       0.136000
     44 H26          3.3030     4.4550    -2.4180 ha         1 IN0       0.118000
     45 H29          3.0630     3.2650    -4.6990 ha         1 IN0       0.120000
     46 H30          2.4810     1.2610    -5.9600 ha         1 IN0       0.110000
     47 H31          1.6740    -0.7610    -4.8140 ha         1 IN0       0.114000
     48 H33          1.4360    -0.8130    -2.3870 ha         1 IN0       0.147000
     49 H5           0.3110    -0.5220     2.3280 h1         1 IN0       0.074700
     50 H141         1.4600    -1.9120     4.0040 hc         1 IN0       0.072700
     51 H142         2.9980    -1.6690     3.1640 hc         1 IN0       0.072700
     52 H23          3.2580    -0.7980     5.6920 hn         1 IN0       0.302500
     53 H38          2.2740     1.9900     5.8390 h1         1 IN0       0.077700
     54 H611         3.2740     1.9530     8.1010 hc         1 IN0       0.041200
     55 H612         3.9400     0.3460     7.7800 hc         1 IN0       0.041200
     56 H8          -2.5940    -2.1080     0.5290 ha         1 IN0       0.139000
     57 H9          -3.8550    -0.0520     0.0020 ha         1 IN0       0.132000
     58 H21         -0.7140     2.2460    -0.2720 ha         1 IN0       0.180000
     59 H431         0.1320    -4.4390     0.4050 h1         1 IN0       0.058200
     60 H432        -1.3060    -3.7130    -0.3260 h1         1 IN0       0.058200
     61 H321        -0.8680    -5.1640    -2.3330 hc         1 IN0       0.037700
     62 H322         0.6270    -5.7880    -1.6230 hc         1 IN0       0.037700
     63 H323         0.6590    -5.0130    -3.2130 hc         1 IN0       0.037700
     64 H251         2.1330    -2.4460    -0.9850 hc         1 IN0       0.037700
     65 H252         2.4430    -3.5210    -2.3560 hc         1 IN0       0.037700
     66 H253         2.3480    -4.1820    -0.7170 hc         1 IN0       0.037700
     67 H241        -1.1850    -2.7060    -2.6000 hc         1 IN0       0.037700
     68 H242         0.0160    -1.5770    -1.9580 hc         1 IN0       0.037700
     69 H243         0.3810    -2.5300    -3.4030 hc         1 IN0       0.037700
@<TRIPOS>BOND
     1     1     2 1
     2     1    30 ar
     3     1    35 ar
     4     2     3 1
     5     2    13 1
     6     2    41 1
     7     3     4 ar
     8     3    12 ar
     9     4     5 ar
    10     4    42 1
    11     5     6 ar
    12     5    43 1
    13     6     7 ar
    14     6    44 1
    15     7     8 ar
    16     7    12 ar
    17     8     9 ar
    18     8    45 1
    19     9    10 ar
    20     9    46 1
    21    10    11 ar
    22    10    47 1
    23    11    12 ar
    24    11    48 1
    25    13    14 1
    26    14    15 1
    27    14    27 1
    28    14    49 1
    29    15    16 1
    30    15    50 1
    31    15    51 1
    32    16    17 2
    33    16    18 1
    34    18    19 1
    35    18    52 1
    36    19    20 1
    37    19    24 1
    38    19    53 1
    39    20    21 1
    40    20    54 1
    41    20    55 1
    42    21    22 1
    43    21    23 1
    44    24    25 1
    45    24    26 1
    46    27    28 2
    47    27    29 1
    48    29    30 1
    49    29    36 1
    50    30    31 ar
    51    31    32 ar
    52    31    56 1
    53    32    33 ar
    54    32    57 1
    55    33    34 1
    56    33    35 ar
    57    35    58 1
    58    36    37 1
    59    36    59 1
    60    36    60 1
    61    37    38 1
    62    37    39 1
    63    37    40 1
    64    38    61 1
    65    38    62 1
    66    38    63 1
    67    39    64 1
    68    39    65 1
    69    39    66 1
    70    40    67 1
    71    40    68 1
    72    40    69 1
@<TRIPOS>SUBSTRUCTURE
     1 IN0         1 TEMP              0 ****  ****    0 ROOT
