@<TRIPOS>MOLECULE
IN2
   33    32     1     0     0
SMALL
bcc


@<TRIPOS>ATOM
      1 N1           0.0000     0.0000     0.0000 nz         1 IN2       0.080400
      2 C2           1.4690     0.0000     0.0000 c3         1 IN2      -0.057200
      3 C3           1.9800     0.0000     1.4410 c3         1 IN2      -0.032400
      4 C4           3.5100    -0.0000     1.4400 c3         1 IN2      -0.050400
      5 C5           4.0210    -0.0010     2.8820 c3         1 IN2       0.076000
      6 N6           5.4850    -0.0000     2.8810 n          1 IN2      -0.228400
      7 N7           6.1850     1.2120     2.8810 ns         1 IN2      -0.114500
      8 C8           6.5680     1.7690     4.0470 c          1 IN2       0.602100
      9 O8           7.2540     2.7730     4.0450 o          1 IN2      -0.734100
     10 N9           6.1920     1.2130     5.2150 n          1 IN2      -0.164800
     11 C10          5.5010    -0.0780     5.2230 c3         1 IN2       0.044300
     12 C11          6.4720     1.9010     6.4780 c3         1 IN2       0.044300
     13 C12          6.1590    -1.1670     2.8800 c          1 IN2       0.982600
     14 O1           5.4860    -2.3320     2.8800 o          1 IN2      -0.877300
     15 O2           7.3740    -1.1670     2.8800 o          1 IN2      -0.877300
     16 HN11        -0.3340    -0.8170     0.4710 hn         1 IN2       0.217800
     17 HN12        -0.3340     0.0010    -0.9440 hn         1 IN2       0.217800
     18 H21          1.8300     0.8840    -0.5110 hx         1 IN2       0.085700
     19 H22          1.8300    -0.8840    -0.5110 hx         1 IN2       0.085700
     20 H31          1.6200     0.8850     1.9520 hc         1 IN2       0.029200
     21 H32          1.6190    -0.8840     1.9520 hc         1 IN2       0.029200
     22 H41          3.8700    -0.8850     0.9290 hc         1 IN2       0.036200
     23 H42          3.8710     0.8840     0.9290 hc         1 IN2       0.036200
     24 H51          3.6600    -0.8850     3.3930 h1         1 IN2       0.028200
     25 H52          3.6590     0.8840     3.3930 h1         1 IN2       0.028200
     26 HN7          6.3810     1.6770     2.0170 hn         1 IN2       0.176500
     27 H101         5.3540    -0.4020     6.2460 h1         1 IN2       0.019700
     28 H102         4.5390     0.0240     4.7340 h1         1 IN2       0.019700
     29 H103         6.0980    -0.8110     4.6940 h1         1 IN2       0.019700
     30 H111         5.9210     1.4230     7.2790 h1         1 IN2       0.019700
     31 H112         7.5330     1.8510     6.6890 h1         1 IN2       0.019700
     32 H113         6.1690     2.9380     6.3990 h1         1 IN2       0.019700
     33 H13         -0.3340     0.8230     0.4610 hn         1 IN2       0.217800
@<TRIPOS>BOND
     1     1     2 1   
     2     1    16 1   
     3     1    17 1   
     4     1    33 1   
     5     2     3 1   
     6     2    18 1   
     7     2    19 1   
     8     3     4 1   
     9     3    20 1   
    10     3    21 1   
    11     4     5 1   
    12     4    22 1   
    13     4    23 1   
    14     5     6 1   
    15     5    24 1   
    16     5    25 1   
    17     6     7 1   
    18     6    13 1   
    19     7     8 1   
    20     7    26 1   
    21     8     9 2   
    22     8    10 1   
    23    10    11 1   
    24    10    12 1   
    25    11    27 1   
    26    11    28 1   
    27    11    29 1   
    28    12    30 1   
    29    12    31 1   
    30    12    32 1   
    31    13    14 1   
    32    13    15 1   
@<TRIPOS>SUBSTRUCTURE
     1 IN2         1 TEMP              0 ****  ****    0 ROOT
