@<TRIPOS>MOLECULE
IN3
   73    75     1     0     0
SMALL
bcc


@<TRIPOS>ATOM
      1 C1           0.0000     0.0000     0.0000 ca         1 IN3      -0.089000
      2 C2           1.3820     0.0000     0.0000 ca         1 IN3      -0.103000
      3 C3           2.0730     0.0000     1.1970 ca         1 IN3      -0.075500
      4 C4           1.3820     0.0020     2.3940 ca         1 IN3      -0.120300
      5 C5           0.0010    -0.0020     2.3930 ca         1 IN3      -0.075500
      6 C6          -0.6910     0.0010     1.1970 ca         1 IN3      -0.103000
      7 C7           2.1350     0.0040     3.7000 c3         1 IN3       0.236700
      8 O8           2.3760     1.3510     4.1100 os         1 IN3      -0.267900
      9 C9           3.0540     1.2880     5.2850 ca         1 IN3       0.127100
     10 C10          3.3710     0.0560     5.8390 ca         1 IN3      -0.201000
     11 C11          4.1250     2.3850     7.1370 ca         1 IN3      -0.122600
     12 C12          4.4400     1.1410     7.6860 ca         1 IN3      -0.128000
     13 C14          4.0620    -0.0140     7.0350 ca         1 IN3      -0.057000
     14 C17          4.5290     3.6260     7.8330 c          1 IN3       0.608700
     15 O18          4.1850     4.7070     7.3970 o          1 IN3      -0.633100
     16 N19          5.2800     3.5580     8.9510 ns         1 IN3      -0.184500
     17 N20          5.7480     4.7340     9.5520 ns         1 IN3      -0.155500
     18 C24          3.4240     2.4540     5.9340 ca         1 IN3      -0.070000
     19 C21          6.5950     4.6650    10.5980 c          1 IN3       0.583100
     20 O22          6.9840     5.6850    11.1330 o          1 IN3      -0.690100
     21 C1'          7.8740    -5.3250    17.9810 ca         1 IN3      -0.089000
     22 C2'          8.9730    -4.5730    18.3460 ca         1 IN3      -0.106000
     23 C3'          8.9780    -3.2060    18.1350 ca         1 IN3      -0.073500
     24 C4'          7.8820    -2.5940    17.5570 ca         1 IN3      -0.121300
     25 C5'          6.7800    -3.3450    17.1970 ca         1 IN3      -0.073500
     26 C6'          6.7780    -4.7120    17.4040 ca         1 IN3      -0.106000
     27 C7'          7.8870    -1.1050    17.3280 c3         1 IN3       0.310700
     28 O8'          8.4320    -0.8190    16.0130 os         1 IN3      -0.425900
     29 C9'          8.5340     0.4540    15.5870 c          1 IN3       0.685100
     30 OA'          8.1680     1.3640    16.3040 o          1 IN3      -0.672000
     31 CB'          9.0870     2.0980    13.8770 c3         1 IN3      -0.056300
     32 CC'         10.5420     2.5020    13.6300 c3         1 IN3      -0.033400
     33 CE'         11.3070     2.4880    14.9540 c3         1 IN3      -0.054700
     34 CF'         12.7890     2.7630    14.6900 c3         1 IN3      -0.004100
     35 CG'         10.7450     3.5680    15.8810 c3         1 IN3      -0.004100
     36 CH'          8.3120     2.2000    12.5880 c          1 IN3       0.558100
     37 OI'          8.1310     1.2110    11.9100 o          1 IN3      -0.667100
     38 NJ'          7.8210     3.3890    12.1900 ns         1 IN3      -0.111500
     39 NK'          7.0080     3.4650    11.0510 ns         1 IN3      -0.181500
     40 NO'          9.0410     0.7180    14.3670 ns         1 IN3      -0.137900
     41 H1          -0.5420     0.0010    -0.9380 ha         1 IN3       0.103000
     42 H2           1.9230    -0.0010    -0.9380 ha         1 IN3       0.105000
     43 H3           3.1570     0.0020     1.1970 ha         1 IN3       0.106000
     44 H5          -0.5410    -0.0010     3.3320 ha         1 IN3       0.106000
     45 H6          -1.7750    -0.0000     1.1970 ha         1 IN3       0.105000
     46 H71          1.5480    -0.5040     4.4550 h1         1 IN3       0.013700
     47 H72          3.0810    -0.5090     3.5720 h1         1 IN3       0.013700
     48 H10          3.0760    -0.8550     5.3330 ha         1 IN3       0.135000
     49 H12          4.9810     1.0830     8.6230 ha         1 IN3       0.100000
     50 H14          4.3060    -0.9790     7.4620 ha         1 IN3       0.107000
     51 HN9          5.4570     2.6720     9.3810 hn         1 IN3       0.203500
     52 HN0          5.4350     5.6240     9.2190 hn         1 IN3       0.243500
     53 H24          3.1770     3.4170     5.5030 ha         1 IN3       0.142000
     54 H2'          9.8320    -5.0530    18.7990 ha         1 IN3       0.104000
     55 H3'          9.8410    -2.6170    18.4200 ha         1 IN3       0.106500
     56 H5'          5.9210    -2.8650    16.7440 ha         1 IN3       0.106500
     57 H6'          5.9150    -5.3010    17.1200 ha         1 IN3       0.104000
     58 H7'1         6.8730    -0.7270    17.3880 h1         1 IN3       0.012200
     59 H7'2         8.4960    -0.6240    18.0840 h1         1 IN3       0.012200
     60 H11'         8.6490     2.7590    14.6160 h1         1 IN3       0.090700
     61 H12A        10.9990     1.8030    12.9410 hc         1 IN3       0.028200
     62 H12B        10.5720     3.4990    13.2060 hc         1 IN3       0.028200
     63 H14'        11.1980     1.5180    15.4240 hc         1 IN3       0.031700
     64 H15A        13.3370     2.7120    15.6230 hc         1 IN3       0.009033
     65 H15B        13.1770     2.0210    14.0030 hc         1 IN3       0.009033
     66 H15C        12.9020     3.7500    14.2580 hc         1 IN3       0.009033
     67 H16A         9.7260     3.3180    16.1500 hc         1 IN3       0.009033
     68 H16B        10.7600     4.5240    15.3720 hc         1 IN3       0.009033
     69 H16C        11.3510     3.6270    16.7770 hc         1 IN3       0.009033
     70 HN1          8.0060     4.2120    12.7290 hn         1 IN3       0.222500
     71 HN2          6.7670     2.6320    10.5520 hn         1 IN3       0.208500
     72 HN4          9.3440    -0.0320    13.7790 hn         1 IN3       0.192500
     73 H1'          7.8710    -6.3960    18.1450 ha         1 IN3       0.102000
@<TRIPOS>BOND
     1     1     2 ar  
     2     1     6 ar  
     3     1    41 1   
     4     2     3 ar  
     5     2    42 1   
     6     3     4 ar  
     7     3    43 1   
     8     4     5 ar  
     9     4     7 1   
    10     5     6 ar  
    11     5    44 1   
    12     6    45 1   
    13     7     8 1   
    14     7    46 1   
    15     7    47 1   
    16     8     9 1   
    17     9    10 ar  
    18     9    18 ar  
    19    10    13 ar  
    20    10    48 1   
    21    11    12 ar  
    22    11    14 1   
    23    11    18 ar  
    24    12    13 ar  
    25    12    49 1   
    26    13    50 1   
    27    14    15 2   
    28    14    16 1   
    29    16    17 1   
    30    16    51 1   
    31    17    19 1   
    32    17    52 1   
    33    18    53 1   
    34    19    20 2   
    35    19    39 1   
    36    21    22 ar  
    37    21    26 ar  
    38    21    73 1   
    39    22    23 ar  
    40    22    54 1   
    41    23    24 ar  
    42    23    55 1   
    43    24    25 ar  
    44    24    27 1   
    45    25    26 ar  
    46    25    56 1   
    47    26    57 1   
    48    27    28 1   
    49    27    58 1   
    50    27    59 1   
    51    28    29 1   
    52    29    30 2   
    53    29    40 1   
    54    31    32 1   
    55    31    36 1   
    56    31    40 1   
    57    31    60 1   
    58    32    33 1   
    59    32    61 1   
    60    32    62 1   
    61    33    34 1   
    62    33    35 1   
    63    33    63 1   
    64    34    64 1   
    65    34    65 1   
    66    34    66 1   
    67    35    67 1   
    68    35    68 1   
    69    35    69 1   
    70    36    37 2   
    71    36    38 1   
    72    38    39 1   
    73    38    70 1   
    74    39    71 1   
    75    40    72 1   
@<TRIPOS>SUBSTRUCTURE
     1 IN3         1 TEMP              0 ****  ****    0 ROOT
