@<TRIPOS>MOLECULE
molecule
   52    53     1     0     0
SMALL
bcc


@<TRIPOS>ATOM
      1 C1           0.0000     0.0000     0.0000 ca         1 IN4      -0.128000
      2 C2           1.3800     0.0000     0.0000 ca         1 IN4      -0.105000
      3 C3           2.0750     0.0000     1.1960 ca         1 IN4      -0.080000
      4 C4           1.3920     0.0000     2.3990 ca         1 IN4      -0.067300
      5 C5           0.0130    -0.0070     2.4110 ca         1 IN4      -0.006000
      6 C6          -0.6940     0.0000     1.2090 ca         1 IN4      -0.190900
      7 C10          2.1570    -0.0000     3.6970 c3         1 IN4      -0.016400
      8 C9           3.0360    -1.2490     3.7700 c3         1 IN4      -0.075400
      9 C11          3.8120    -1.2480     5.0890 c3         1 IN4      -0.052100
     10 C12          4.6800    -2.4780     5.1610 ca         1 IN4      -0.027300
     11 C20         -2.1740     0.0010     1.2160 ce         1 IN4       0.542800
     12 N3          -2.8200     0.0000     2.3470 n2         1 IN4      -0.677100
     13 N4          -2.8690     0.0010     0.0260 nz         1 IN4      -0.801600
     14 C7           5.9710    -2.4410     4.6680 ca         1 IN4      -0.114000
     15 C13          6.7700    -3.5630     4.7310 ca         1 IN4      -0.078000
     16 C15          6.2740    -4.7380     5.2950 ca         1 IN4      -0.195900
     17 C16          7.1260    -5.9470     5.3670 ce         1 IN4       0.539800
     18 C17          4.9710    -4.7700     5.7910 ca         1 IN4      -0.078000
     19 C19          4.1830    -3.6390     5.7270 ca         1 IN4      -0.114000
     20 N2           8.3420    -5.9150     4.9030 n2         1 IN4      -0.676100
     21 N1           6.6330    -7.1060     5.9230 nz         1 IN4      -0.801600
     22 C14          3.0350     1.2490     3.7710 c3         1 IN4      -0.128400
     23 C22          2.1680     2.4800     3.6980 c          1 IN4       0.642100
     24 O3           0.9700     2.3680     3.5980 o          1 IN4      -0.567000
     25 O4           2.7270     3.6980     3.7450 os         1 IN4      -0.427900
     26 C8           1.8920     4.8840     3.6750 c3         1 IN4       0.146700
     27 H1          -0.5430     0.0030    -0.9370 ha         1 IN4       0.109000
     28 H2           1.9200    -0.0000    -0.9390 ha         1 IN4       0.159000
     29 H3           3.1590     0.0030     1.1900 ha         1 IN4       0.151000
     30 H5          -0.5210    -0.0070     3.3540 ha         1 IN4       0.176000
     31 H10          1.4600    -0.0000     4.5260 hc         1 IN4       0.083700
     32 H91          2.4120    -2.1330     3.7190 hc         1 IN4       0.053700
     33 H92          3.7330    -1.2500     2.9410 hc         1 IN4       0.053700
     34 H111         4.4350    -0.3630     5.1410 hc         1 IN4       0.069700
     35 H112         3.1150    -1.2490     5.9180 hc         1 IN4       0.069700
     36 HN3         -3.8210     0.0000     2.3530 hn         1 IN4       0.435400
     37 HN41        -3.8520     0.0010     0.2140 hn         1 IN4       0.466133
     38 HN42        -2.6300     0.8190    -0.5000 hn         1 IN4       0.466133
     39 H7           6.3560    -1.5280     4.2300 ha         1 IN4       0.159500
     40 H13          7.7820    -3.5320     4.3450 ha         1 IN4       0.142500
     41 H17          4.5800    -5.6790     6.2320 ha         1 IN4       0.142500
     42 H19          3.1710    -3.6620     6.1120 ha         1 IN4       0.159500
     43 HN2          8.9190    -6.7310     4.9500 hn         1 IN4       0.439400
     44 HN11         7.3350    -7.8180     5.8890 hn         1 IN4       0.466467
     45 HN12         6.3760    -6.9360     6.8750 hn         1 IN4       0.466467
     46 H141         3.5850     1.2500     4.7040 hc         1 IN4       0.082200
     47 H142         3.7330     1.2500     2.9420 hc         1 IN4       0.082200
     48 H81          1.3630     4.8980     2.7290 h1         1 IN4       0.056367
     49 H82          2.5130     5.7680     3.7540 h1         1 IN4       0.056367
     50 H83          1.1760     4.8710     4.4880 h1         1 IN4       0.056367
     51 H43         -2.6170    -0.8060    -0.5080 hn         1 IN4       0.466133
     52 H131         5.8340    -7.4120     5.4030 hn         1 IN4       0.466467
@<TRIPOS>BOND
     1     1     2 ar
     2     1     6 ar
     3     1    27 1
     4     2     3 ar
     5     2    28 1
     6     3     4 ar
     7     3    29 1
     8     4     5 ar
     9     4     7 1
    10     5     6 ar
    11     5    30 1
    12     6    11 1
    13     7     8 1
    14     7    22 1
    15     7    31 1
    16     8     9 1
    17     8    32 1
    18     8    33 1
    19     9    10 1
    20     9    34 1
    21     9    35 1
    22    10    14 ar
    23    10    19 ar
    24    11    12 2
    25    11    13 1
    26    12    36 1
    27    13    37 1
    28    13    38 1
    29    14    15 ar
    30    14    39 1
    31    15    16 ar
    32    15    40 1
    33    16    17 1
    34    16    18 ar
    35    17    20 2
    36    17    21 1
    37    18    19 ar
    38    18    41 1
    39    19    42 1
    40    20    43 1
    41    21    44 1
    42    21    45 1
    43    22    23 1
    44    22    46 1
    45    22    47 1
    46    23    24 2
    47    23    25 1
    48    25    26 1
    49    26    48 1
    50    26    49 1
    51    26    50 1
    52    51    13 1
    53    52    21 1
@<TRIPOS>SUBSTRUCTURE
     1 IN4         1 TEMP              0 ****  ****    0 ROOT
