@<TRIPOS>MOLECULE
IN4
   52    53     1     0     0
SMALL
bcc


@<TRIPOS>ATOM
      1 C1           0.0000     0.0000     0.0000 ca         1 IN4      -0.094000
      2 C2           1.3800     0.0000     0.0000 ca         1 IN4      -0.061000
      3 C3           2.0750     0.0000     1.1960 ca         1 IN4      -0.056000
      4 C4           1.3920     0.0000     2.3990 ca         1 IN4      -0.056300
      5 C5           0.0130    -0.0070     2.4110 ca         1 IN4      -0.015000
      6 C6          -0.6940     0.0000     1.2090 ca         1 IN4      -0.222900
      7 C10          2.1570    -0.0000     3.6970 c3         1 IN4       0.014600
      8 C9           3.0360    -1.2490     3.7700 c3         1 IN4      -0.024400
      9 C11          3.8120    -1.2480     5.0890 c3         1 IN4       0.009900
     10 C12          4.6800    -2.4780     5.1610 ca         1 IN4      -0.036300
     11 C20         -2.1740     0.0010     1.2160 ce         1 IN4       0.210800
     12 N3          -2.8200     0.0000     2.3470 n2         1 IN4      -0.481100
     13 N4          -2.8690     0.0010     0.0260 nz         1 IN4       0.189400
     14 C7           5.9710    -2.4410     4.6680 ca         1 IN4      -0.067500
     15 C13          6.7700    -3.5630     4.7310 ca         1 IN4      -0.065500
     16 C15          6.2740    -4.7380     5.2950 ca         1 IN4      -0.227900
     17 C16          7.1260    -5.9470     5.3670 ce         1 IN4       0.206800
     18 C17          4.9710    -4.7700     5.7910 ca         1 IN4      -0.065500
     19 C19          4.1830    -3.6390     5.7270 ca         1 IN4      -0.067500
     20 N2           8.3420    -5.9150     4.9030 n2         1 IN4      -0.473100
     21 N1           6.6330    -7.1060     5.9230 nz         1 IN4       0.190400
     22 C14          3.0350     1.2490     3.7710 c3         1 IN4      -0.082400
     23 C22          2.1680     2.4800     3.6980 c          1 IN4       0.711100
     24 O3           0.9700     2.3680     3.5980 o          1 IN4      -0.617000
     25 O4           2.7270     3.6980     3.7450 os         1 IN4      -0.411900
     26 C8           1.8920     4.8840     3.6750 c3         1 IN4       0.281700
     27 H1          -0.5430     0.0030    -0.9370 ha         1 IN4       0.088000
     28 H2           1.9200    -0.0000    -0.9390 ha         1 IN4       0.127000
     29 H3           3.1590     0.0030     1.1900 ha         1 IN4       0.122000
     30 H5          -0.5210    -0.0070     3.3540 ha         1 IN4       0.119000
     31 H10          1.4600    -0.0000     4.5260 hc         1 IN4       0.051700
     32 H91          2.4120    -2.1330     3.7190 hc         1 IN4       0.023200
     33 H92          3.7330    -1.2500     2.9410 hc         1 IN4       0.023200
     34 H111         3.1150    -1.2490     5.9180 hc         1 IN4       0.038700
     35 H112         4.4350    -0.3630     5.1410 hc         1 IN4       0.038700
     36 HN3         -2.3170    -0.0010     3.2120 hn         1 IN4       0.381400
     37 HN41        -2.6300    -0.8160    -0.5000 hn         1 IN4       0.222800
     38 HN42        -2.6300     0.8190    -0.5000 hn         1 IN4       0.222800
     39 H7           6.3560    -1.5280     4.2300 ha         1 IN4       0.127500
     40 H13          7.7820    -3.5320     4.3450 ha         1 IN4       0.101500
     41 H17          4.5800    -5.6790     6.2320 ha         1 IN4       0.101500
     42 H19          3.1710    -3.6620     6.1120 ha         1 IN4       0.127500
     43 HN2          8.7020    -5.0730     4.4980 hn         1 IN4       0.380400
     44 HN11         5.8280    -7.4070     5.4090 hn         1 IN4       0.222800
     45 HN12         7.3350    -7.8180     5.8890 hn         1 IN4       0.222800
     46 H141         3.5850     1.2500     4.7040 hc         1 IN4       0.050200
     47 H142         3.7330     1.2500     2.9420 hc         1 IN4       0.050200
     48 H81          1.1760     4.8710     4.4880 h1         1 IN4       0.007033
     49 H82          2.5130     5.7680     3.7540 h1         1 IN4       0.007033
     50 H83          1.3640     4.8980     2.7290 h1         1 IN4       0.007033
     51 H43         -3.8520     0.0020     0.2140 hn         1 IN4       0.222800
     52 H131         6.3780    -6.9370     6.8760 hn         1 IN4       0.222800
@<TRIPOS>BOND
     1     1     2 ar  
     2     1     6 ar  
     3     1    27 1   
     4     2     3 ar  
     5     2    28 1   
     6     3     4 ar  
     7     3    29 1   
     8     4     5 ar  
     9     4     7 1   
    10     5     6 ar  
    11     5    30 1   
    12     6    11 1   
    13     7     8 1   
    14     7    22 1   
    15     7    31 1   
    16     8     9 1   
    17     8    32 1   
    18     8    33 1   
    19     9    10 1   
    20     9    34 1   
    21     9    35 1   
    22    10    14 ar  
    23    10    19 ar  
    24    11    12 2   
    25    11    13 1   
    26    12    36 1   
    27    13    37 1   
    28    13    38 1   
    29    13    51 1   
    30    14    15 ar  
    31    14    39 1   
    32    15    16 ar  
    33    15    40 1   
    34    16    17 1   
    35    16    18 ar  
    36    17    20 2   
    37    17    21 1   
    38    18    19 ar  
    39    18    41 1   
    40    19    42 1   
    41    20    43 1   
    42    21    44 1   
    43    21    45 1   
    44    21    52 1   
    45    22    23 1   
    46    22    46 1   
    47    22    47 1   
    48    23    24 2   
    49    23    25 1   
    50    25    26 1   
    51    26    48 1   
    52    26    49 1   
    53    26    50 1   
@<TRIPOS>SUBSTRUCTURE
     1 IN4         1 TEMP              0 ****  ****    0 ROOT
