@<TRIPOS>MOLECULE
molecule
   36    36     1     0     0
SMALL
bcc


@<TRIPOS>ATOM
      1 C1           0.0000     0.0000     0.0000 ca         1 IN5       0.392200
      2 C2           2.0120     0.0000     1.1210 ca         1 IN5       0.295600
      3 C3           1.3700     0.0020     2.3500 ca         1 IN5      -0.052200
      4 O4          -4.7560     1.2070     0.6030 o          1 IN5      -0.906500
      5 O5          -4.8830     0.0080    -1.6140 o          1 IN5      -0.906500
      6 C9          -1.7150     1.3180     5.4060 c3         1 IN5       0.018300
      7 C10         -1.3650     2.5410     6.2560 c3         1 IN5      -0.061100
      8 N1           1.3180     0.0000     0.0000 nb         1 IN5      -0.743000
      9 C4          -0.0210     0.0020     2.3870 ca         1 IN5      -0.061300
     10 C5          -0.7100    -0.0040     1.1860 ca         1 IN5      -0.096600
     11 O1           2.0910     0.0020     3.5030 oh         1 IN5      -0.528100
     12 C6           3.5180     0.0000     1.0650 c3         1 IN5      -0.112400
     13 O2          -2.6820     0.0010    -0.1780 os         1 IN5      -0.584200
     14 N2          -0.9980     1.3880     4.1280 n7         1 IN5      -0.703200
     15 P1          -4.2900     0.0010    -0.1180 p5         1 IN5       1.150900
     16 O3          -4.7980    -1.3150     0.6550 o          1 IN5      -0.906500
     17 P2          -3.5110     1.2890     5.0940 p5         1 IN5       1.016700
     18 O6          -3.8500     0.1050     4.2730 o          1 IN5      -0.892500
     19 O7          -4.2980     1.2120     6.4970 o          1 IN5      -0.892500
     20 O8          -3.9410     2.6260     4.3100 o          1 IN5      -0.892500
     21 H1          -0.5340     0.0000    -0.9420 h4         1 IN5       0.058100
     22 H71         -2.5830     0.8790     1.6830 h1         1 IN5       0.131700
     23 H72         -2.5830    -0.8900     1.6770 h1         1 IN5       0.131700
     24 H81         -1.7060    -0.5070     3.5840 h1         1 IN5       0.057200
     25 H82         -0.1640    -0.5070     4.4490 h1         1 IN5       0.057200
     26 H9          -1.4260     0.4170     5.9340 h1         1 IN5      -0.014300
     27 H101        -1.5140     3.4410     5.6720 hc         1 IN5       0.001367
     28 H102        -0.3290     2.4790     6.5670 hc         1 IN5       0.001367
     29 H103        -2.0040     2.5680     7.1300 hc         1 IN5       0.001367
     30 HO1          2.3780    -0.8760     3.6940 ho         1 IN5       0.376000
     31 H61          3.8950    -0.9260     1.4820 hc         1 IN5       0.011700
     32 H62          3.9010     0.8360     1.6380 hc         1 IN5       0.011700
     33 H63          3.8420     0.0900     0.0350 hc         1 IN5       0.011700
     34 HN2         -0.1210     1.8520     4.2620 hn         1 IN5       0.271800
     35 C7          -2.2180    -0.0030     1.1730 c3         1 IN5       0.173700
     36 C8          -0.7580     0.0030     3.7010 c3         1 IN5       0.183100
@<TRIPOS>BOND
     1     1     8 ar
     2     1    10 ar
     3     1    21 1
     4     2     3 ar
     5     2     8 ar
     6     2    12 1
     7     3     9 ar
     8     3    11 1
     9     4    15 1
    10     5    15 1
    11    35    10 1
    12    35    13 1
    13    35    22 1
    14    35    23 1
    15    36     9 1
    16    36    14 1
    17    36    24 1
    18    36    25 1
    19     6     7 1
    20     6    14 1
    21     6    17 1
    22     6    26 1
    23     7    27 1
    24     7    28 1
    25     7    29 1
    26     9    10 ar
    27    11    30 1
    28    12    31 1
    29    12    32 1
    30    12    33 1
    31    13    15 1
    32    14    34 1
    33    15    16 1
    34    17    18 1
    35    17    19 1
    36    17    20 1
@<TRIPOS>SUBSTRUCTURE
     1 IN5         1 TEMP              0 ****  ****    0 ROOT
