@<TRIPOS>MOLECULE
molecule
   82    84     1     0     0
SMALL
bcc


@<TRIPOS>ATOM
      1 C1           0.0000     0.0000     0.0000 ca         1 IN6      -0.115000
      2 C2           1.3830     0.0000     0.0000 ca         1 IN6      -0.133000
      3 C3           2.0740     0.0000     1.1970 ca         1 IN6      -0.101500
      4 C4           1.3830     0.0020     2.3950 ca         1 IN6      -0.103300
      5 C5           0.0010    -0.0040     2.3950 ca         1 IN6      -0.101500
      6 C6          -0.6900     0.0010     1.1970 ca         1 IN6      -0.133000
      7 C7           2.1370     0.0020     3.6990 c3         1 IN6       0.224700
      8 O8           2.3800     1.3710     4.1170 os         1 IN6      -0.447900
      9 C9           3.0410     1.6180     5.2630 c          1 IN6       0.759100
     10 O10          3.4350     0.6950     5.9470 o          1 IN6      -0.609000
     11 C11          4.0300     3.1570     6.8720 c3         1 IN6       0.119400
     12 C12          5.4120     3.6960     6.4990 c3         1 IN6      -0.092400
     13 C14          6.1680     2.6450     5.6840 c3         1 IN6      -0.073700
     14 C15          7.4910     3.2350     5.1910 c3         1 IN6      -0.090100
     15 C16          6.4510     1.4250     6.5640 c3         1 IN6      -0.090100
     16 C17          3.3010     4.1770     7.7070 cc         1 IN6       0.453700
     17 S18          2.8620     5.8010     7.2900 ss         1 IN6      -0.208300
     18 N19          2.8470     4.0580     8.9270 nd         1 IN6      -0.690000
     19 C20          2.2170     5.0820     9.5060 cd         1 IN6       0.296800
     20 N24          3.2660     2.8880     5.6510 ns         1 IN6      -0.569900
     21 C42          2.0830     6.2370     8.7780 cc         1 IN6      -0.091400
     22 C21          1.6900     4.9770    10.8770 c          1 IN6       0.594600
     23 O22          1.1220     5.9270    11.3830 o          1 IN6      -0.624100
     24 C1'          1.0770    -5.1900    18.7910 ca         1 IN6      -0.116000
     25 C2'          1.0720    -4.0610    19.5900 ca         1 IN6      -0.133500
     26 C3'          0.5510    -2.8760    19.1080 ca         1 IN6      -0.101000
     27 C4'          0.0370    -2.8170    17.8260 ca         1 IN6      -0.102300
     28 C5'          0.0360    -3.9470    17.0290 ca         1 IN6      -0.101000
     29 C6'          0.5600    -5.1310    17.5100 ca         1 IN6      -0.133500
     30 C7'         -0.5300    -1.5230    17.3000 c3         1 IN6       0.224700
     31 O8'          0.5230    -0.7630    16.6510 os         1 IN6      -0.442900
     32 C9'          0.2460     0.4360    16.1030 c          1 IN6       0.762100
     33 OA'         -0.8830     0.8810    16.1510 o          1 IN6      -0.623000
     34 CB'          0.9400     2.4770    14.9680 c3         1 IN6       0.064700
     35 CC'          1.6090     3.5300    15.8540 c3         1 IN6      -0.093400
     36 CE'          0.9800     3.4980    17.2480 c3         1 IN6      -0.073700
     37 CF'          1.7470     4.4420    18.1760 c3         1 IN6      -0.094100
     38 CG'         -0.4800     3.9460    17.1600 c3         1 IN6      -0.094100
     39 CH'          1.4800     2.5840    13.5650 c          1 IN6       0.642100
     40 OI'          2.0450     1.6380    13.0590 o          1 IN6      -0.604100
     41 NJ'          1.3330     3.7310    12.8720 ns         1 IN6      -0.431500
     42 NK'          1.8350     3.8300    11.5680 ns         1 IN6      -0.410500
     43 NO'          1.2230     1.1420    15.5000 ns         1 IN6      -0.549900
     44 H1          -0.5420     0.0020    -0.9380 ha         1 IN6       0.131000
     45 H2           1.9240    -0.0010    -0.9380 ha         1 IN6       0.132500
     46 H3           3.1570     0.0020     1.1970 ha         1 IN6       0.134500
     47 H5          -0.5410    -0.0030     3.3330 ha         1 IN6       0.134500
     48 H6          -1.7740    -0.0010     1.1980 ha         1 IN6       0.132500
     49 H71          1.5510    -0.5080     4.4550 h1         1 IN6       0.056700
     50 H72          3.0830    -0.5100     3.5700 h1         1 IN6       0.056700
     51 H11          4.1410     2.2390     7.4370 h1         1 IN6       0.131700
     52 H121         5.3010     4.5980     5.9100 hc         1 IN6       0.054200
     53 H122         5.9670     3.9210     7.4020 hc         1 IN6       0.054200
     54 H14          5.5670     2.3450     4.8340 hc         1 IN6       0.056700
     55 H151         8.0540     2.4710     4.6670 hc         1 IN6       0.038533
     56 H152         8.0660     3.5900     6.0370 hc         1 IN6       0.038533
     57 H153         7.2890     4.0600     4.5180 hc         1 IN6       0.038533
     58 H161         6.7310     0.5860     5.9380 hc         1 IN6       0.038533
     59 H162         5.5620     1.1730     7.1290 hc         1 IN6       0.038533
     60 H163         7.2610     1.6520     7.2470 hc         1 IN6       0.038533
     61 HN4          2.8750     3.6470     5.1290 hn         1 IN6       0.326500
     62 H42          1.6140     7.1720     9.0580 h4         1 IN6       0.220000
     63 H2'          1.4750    -4.1070    20.5940 ha         1 IN6       0.132000
     64 H3'          0.5490    -1.9910    19.7330 ha         1 IN6       0.134500
     65 H5'         -0.3670    -3.9010    16.0250 ha         1 IN6       0.134500
     66 H6'          0.5620    -6.0160    16.8850 ha         1 IN6       0.132000
     67 H7'1        -1.3140    -1.7380    16.5840 h1         1 IN6       0.055200
     68 H7'2        -0.9380    -0.9470    18.1210 h1         1 IN6       0.055200
     69 H11'        -0.1310     2.6420    14.9570 h1         1 IN6       0.116700
     70 H12A         2.6680     3.3180    15.9300 hc         1 IN6       0.054200
     71 H12B         1.4680     4.5120    15.4170 hc         1 IN6       0.054200
     72 H14'         1.0250     2.4900    17.6420 hc         1 IN6       0.059700
     73 H15A         1.7540     4.0350    19.1800 hc         1 IN6       0.038700
     74 H15B         2.7650     4.5480    17.8210 hc         1 IN6       0.038700
     75 H15C         1.2650     5.4120    18.1830 hc         1 IN6       0.038700
     76 H16A        -1.0420     3.2320    16.5690 hc         1 IN6       0.038700
     77 H16B        -0.5310     4.9210    16.6910 hc         1 IN6       0.038700
     78 H16C        -0.9020     4.0010    18.1560 hc         1 IN6       0.038700
     79 HN9          0.8510     4.5050    13.2830 hn         1 IN6       0.362500
     80 HN0          2.2730     3.0390    11.1380 hn         1 IN6       0.384500
     81 HN2          2.1390     0.7500    15.4060 hn         1 IN6       0.342500
     82 H1'          1.4860    -6.1190    19.1680 ha         1 IN6       0.131000
@<TRIPOS>BOND
     1     1     2 ar
     2     1     6 ar
     3     1    44 1
     4     2     3 ar
     5     2    45 1
     6     3     4 ar
     7     3    46 1
     8     4     5 ar
     9     4     7 1
    10     5     6 ar
    11     5    47 1
    12     6    48 1
    13     7     8 1
    14     7    49 1
    15     7    50 1
    16     8     9 1
    17     9    10 2
    18     9    20 1
    19    11    12 1
    20    11    16 1
    21    11    20 1
    22    11    51 1
    23    12    13 1
    24    12    52 1
    25    12    53 1
    26    13    14 1
    27    13    15 1
    28    13    54 1
    29    14    55 1
    30    14    56 1
    31    14    57 1
    32    15    58 1
    33    15    59 1
    34    15    60 1
    35    16    17 1
    36    16    18 2
    37    17    21 1
    38    18    19 1
    39    19    21 2
    40    19    22 1
    41    20    61 1
    42    21    62 1
    43    22    23 2
    44    22    42 1
    45    24    25 ar
    46    24    29 ar
    47    24    82 1
    48    25    26 ar
    49    25    63 1
    50    26    27 ar
    51    26    64 1
    52    27    28 ar
    53    27    30 1
    54    28    29 ar
    55    28    65 1
    56    29    66 1
    57    30    31 1
    58    30    67 1
    59    30    68 1
    60    31    32 1
    61    32    33 2
    62    32    43 1
    63    34    35 1
    64    34    39 1
    65    34    43 1
    66    34    69 1
    67    35    36 1
    68    35    70 1
    69    35    71 1
    70    36    37 1
    71    36    38 1
    72    36    72 1
    73    37    73 1
    74    37    74 1
    75    37    75 1
    76    38    76 1
    77    38    77 1
    78    38    78 1
    79    39    40 2
    80    39    41 1
    81    41    42 1
    82    41    79 1
    83    42    80 1
    84    43    81 1
@<TRIPOS>SUBSTRUCTURE
     1 IN6         1 TEMP              0 ****  ****    0 ROOT
