@<TRIPOS>MOLECULE
IN7
   47    49     1     0     0
SMALL
bcc


@<TRIPOS>ATOM
      1 C1           0.0000     0.0000     0.0000 ca         1 IN7       0.042600
      2 C2           1.3890     0.0000     0.0000 ca         1 IN7      -0.184000
      3 C3           2.0760     0.0000     1.1970 ca         1 IN7       0.032500
      4 C7          -1.1470     1.3580    -3.2010 c3         1 IN7      -0.026400
      5 C6          -0.6920    -0.0000     1.2030 ca         1 IN7      -0.184000
      6 O2           3.5530    -0.5270     3.6220 o          1 IN7      -0.613800
      7 C4           1.3850    -0.0000     2.3940 ca         1 IN7      -0.162500
      8 C5           0.0020    -0.0060     2.3970 ca         1 IN7       0.032500
      9 O3           0.9870     4.8240     5.1900 o          1 IN7      -0.891300
     10 S            2.2670    -0.0010     3.9190 sy         1 IN7       1.020200
     11 C11         -2.6550     1.2830    -2.9460 c3         1 IN7       0.002600
     12 C13         -2.9620     0.0090    -2.1530 c3         1 IN7      -0.026400
     13 C15         -2.1250     0.0010    -0.8720 c3         1 IN7       0.124300
     14 N1          -0.7000     0.0010    -1.2090 nh         1 IN7      -0.359000
     15 C18         -0.4060     1.2790    -1.8650 c3         1 IN7       0.124300
     16 C10         -4.7340     1.1800    -6.6770 ca         1 IN7      -0.115000
     17 C12         -4.9800     2.2000    -5.7760 ca         1 IN7      -0.102000
     18 C14         -4.3070     2.2330    -4.5690 ca         1 IN7      -0.096000
     19 C16         -3.3880     1.2460    -4.2620 ca         1 IN7      -0.077300
     20 C17         -3.1390     0.2310    -5.1640 ca         1 IN7      -0.096000
     21 C19         -3.8150     0.1950    -6.3700 ca         1 IN7      -0.102000
     22 O1           1.3670    -0.5270     4.8860 o          1 IN7      -0.613800
     23 N2           2.5140     1.5780     4.3490 n7         1 IN7      -0.550100
     24 C8           1.3710     2.4670     4.5640 c3         1 IN7       0.108800
     25 C9           1.8640     3.8390     4.9430 c          1 IN7       0.975600
     26 O4           3.0510     4.0530     5.0240 o          1 IN7      -0.891300
     27 H2           1.9310     0.0000    -0.9380 ha         1 IN7       0.119000
     28 H3           3.1600     0.0020     1.1990 ha         1 IN7       0.124500
     29 H71         -0.8460     0.5290    -3.8300 hc         1 IN7       0.022950
     30 H72         -0.9100     2.2950    -3.6900 hc         1 IN7       0.022950
     31 H6          -1.7760    -0.0030     1.2050 ha         1 IN7       0.119000
     32 H5          -0.5370    -0.0070     3.3360 ha         1 IN7       0.124500
     33 H11         -2.9680     2.1480    -2.3750 hc         1 IN7       0.033700
     34 H131        -2.7130    -0.8580    -2.7520 hc         1 IN7       0.022950
     35 H132        -4.0140    -0.0110    -1.8960 hc         1 IN7       0.022950
     36 H151        -2.3580    -0.8880    -0.2970 h1         1 IN7       0.025950
     37 H152        -2.3560     0.8840    -0.2870 h1         1 IN7       0.025950
     38 H181        -0.7290     2.0920    -1.2260 h1         1 IN7       0.025950
     39 H182         0.6610     1.3550    -2.0410 h1         1 IN7       0.025950
     40 H10         -5.2750     1.1430    -7.6140 ha         1 IN7       0.098000
     41 H12         -5.6860     2.9830    -6.0250 ha         1 IN7       0.099000
     42 H14         -4.5010     3.0310    -3.8630 ha         1 IN7       0.110500
     43 H17         -2.4270    -0.5490    -4.9190 ha         1 IN7       0.110500
     44 H19         -3.6560    -0.5800    -7.1100 ha         1 IN7       0.099000
     45 HN2          3.4460     1.9210     4.4800 hn         1 IN7       0.378800
     46 H81          0.7880     2.5310     3.6540 h1         1 IN7       0.006700
     47 H82          0.7530     2.0730     5.3620 h1         1 IN7       0.006700
@<TRIPOS>BOND
     1     1     2 ar  
     2     1     5 ar  
     3     1    14 1   
     4     2     3 ar  
     5     2    27 1   
     6     3     7 ar  
     7     3    28 1   
     8     4    11 1   
     9     4    15 1   
    10     4    29 1   
    11     4    30 1   
    12     5     8 ar  
    13     5    31 1   
    14     6    10 2   
    15     7     8 ar  
    16     7    10 1   
    17     8    32 1   
    18     9    25 1   
    19    10    22 2   
    20    10    23 1   
    21    11    12 1   
    22    11    19 1   
    23    11    33 1   
    24    12    13 1   
    25    12    34 1   
    26    12    35 1   
    27    13    14 1   
    28    13    36 1   
    29    13    37 1   
    30    14    15 1   
    31    15    38 1   
    32    15    39 1   
    33    16    17 ar  
    34    16    21 ar  
    35    16    40 1   
    36    17    18 ar  
    37    17    41 1   
    38    18    19 ar  
    39    18    42 1   
    40    19    20 ar  
    41    20    21 ar  
    42    20    43 1   
    43    21    44 1   
    44    23    24 1   
    45    23    45 1   
    46    24    25 1   
    47    24    46 1   
    48    24    47 1   
    49    25    26 1   
@<TRIPOS>SUBSTRUCTURE
     1 IN7         1 TEMP              0 ****  ****    0 ROOT
