@<TRIPOS>MOLECULE
IN8
   46    48     1     0     0
SMALL
bcc


@<TRIPOS>ATOM
      1 C1           0.0000     0.0000     0.0000 cc         1 IN8       0.452300
      2 C2           1.9810     0.0000     1.7790 cc         1 IN8       0.559700
      3 C3          -2.2210     0.0010    -0.8330 c          1 IN8       0.525100
      4 C7          -6.4940    -1.0350    -2.7490 ca         1 IN8      -0.080500
      5 C8          -7.3830    -1.0350    -3.8080 ca         1 IN8      -0.101500
      6 C9          -7.3690    -0.0000    -4.7230 ca         1 IN8      -0.092000
      7 C10         -6.4660     1.0370    -4.5790 ca         1 IN8      -0.101500
      8 C11         -5.5800     1.0390    -3.5170 ca         1 IN8      -0.080500
      9 C12         -5.7100     1.1660     0.3920 c          1 IN8       0.698100
     10 C13         -6.8480     2.2300     2.2480 c3         1 IN8       0.310700
     11 C14         -6.9460     6.0510     4.1560 ca         1 IN8      -0.092000
     12 C15         -7.8090     5.7770     3.1110 ca         1 IN8      -0.108500
     13 C16         -7.7780     4.5410     2.4940 ca         1 IN8      -0.074000
     14 C19         -6.0530     5.0860     4.5850 ca         1 IN8      -0.108500
     15 S1           1.7910     0.0000     0.0000 ss         1 IN8      -0.482800
     16 N1          -0.2290     0.0020     1.3020 nd         1 IN8      -0.325000
     17 N2           0.7080    -0.0040     2.1460 nd         1 IN8      -0.207000
     18 N3          -0.8940    -0.0010    -1.0670 ns         1 IN8      -0.042400
     19 S2           3.4440    -0.0010     2.7620 sh         1 IN8      -0.322100
     20 O1          -2.6370     0.0020     0.3060 o          1 IN8      -0.538100
     21 C4          -3.1910     0.0000    -1.9870 c3         1 IN8      -0.110400
     22 C5          -4.6220     0.0020    -1.4510 c3         1 IN8       0.107000
     23 C6          -5.5910     0.0010    -2.6050 ca         1 IN8      -0.129300
     24 O2          -5.9080     2.2650     1.1430 os         1 IN8      -0.428900
     25 O3          -6.3190     0.1450     0.6400 o          1 IN8      -0.661000
     26 N4          -4.8370     1.1970    -0.6330 ns         1 IN8      -0.153900
     27 C17         -6.8830     3.5790     2.9210 ca         1 IN8      -0.118300
     28 C18         -6.0240     3.8490     3.9700 ca         1 IN8      -0.074000
     29 H7          -6.5040    -1.8480    -2.0340 ha         1 IN8       0.108000
     30 H8          -8.0900    -1.8480    -3.9210 ha         1 IN8       0.104500
     31 H9          -8.0650    -0.0020    -5.5540 ha         1 IN8       0.103000
     32 H10         -6.4560     1.8500    -5.2940 ha         1 IN8       0.104500
     33 H11         -4.8730     1.8510    -3.4040 ha         1 IN8       0.108000
     34 H131        -7.8360     1.9880     1.8740 h1         1 IN8       0.012700
     35 H132        -6.5380     1.4780     2.9620 h1         1 IN8       0.012700
     36 H15         -8.5090     6.5330     2.7750 ha         1 IN8       0.103000
     37 H16         -8.4540     4.3280     1.6740 ha         1 IN8       0.108500
     38 H19         -5.3790     5.2990     5.4050 ha         1 IN8       0.103000
     39 HN3         -0.5520    -0.0380    -2.0070 hn         1 IN8       0.177500
     40 HS2          4.0620    -1.1690     2.6330 hs         1 IN8       0.194800
     41 H41         -3.0310     0.8840    -2.5930 hc         1 IN8       0.041200
     42 H42         -3.0320    -0.8850    -2.5910 hc         1 IN8       0.041200
     43 H5          -4.7810    -0.8830    -0.8460 h1         1 IN8       0.079700
     44 HN4         -4.3430     2.0420    -0.8440 hn         1 IN8       0.169500
     45 H18         -5.3240     3.0940     4.3060 ha         1 IN8       0.108500
     46 H14         -6.9700     7.0200     4.6390 ha         1 IN8       0.101000
@<TRIPOS>BOND
     1     1    15 1   
     2     1    16 2   
     3     1    18 1   
     4     2    15 1   
     5     2    17 2   
     6     2    19 1   
     7     3    18 1   
     8     3    20 2   
     9     3    21 1   
    10     4     5 ar  
    11     4    23 ar  
    12     4    29 1   
    13     5     6 ar  
    14     5    30 1   
    15     6     7 ar  
    16     6    31 1   
    17     7     8 ar  
    18     7    32 1   
    19     8    23 ar  
    20     8    33 1   
    21     9    24 1   
    22     9    25 2   
    23     9    26 1   
    24    10    24 1   
    25    10    27 1   
    26    10    34 1   
    27    10    35 1   
    28    11    12 ar  
    29    11    14 ar  
    30    11    46 1   
    31    12    13 ar  
    32    12    36 1   
    33    13    27 ar  
    34    13    37 1   
    35    14    28 ar  
    36    14    38 1   
    37    16    17 1   
    38    18    39 1   
    39    19    40 1   
    40    21    22 1   
    41    21    41 1   
    42    21    42 1   
    43    22    23 1   
    44    22    26 1   
    45    22    43 1   
    46    26    44 1   
    47    27    28 ar  
    48    28    45 1   
@<TRIPOS>SUBSTRUCTURE
     1 IN8         1 TEMP              0 ****  ****    0 ROOT
