@<TRIPOS>MOLECULE
IN9
   37    38     1     0     0
SMALL
bcc


@<TRIPOS>ATOM
      1 C1           0.0000     0.0000     0.0000 cc         1 IN9       0.483300
      2 C2           2.0220     0.0000     1.7700 cc         1 IN9       0.602700
      3 C3          -2.2120     0.0010    -0.8610 c          1 IN9       0.541100
      4 C7          -5.2170     0.7220    -2.8160 c3         1 IN9       0.029900
      5 C8          -3.6250     2.4490    -3.6830 ca         1 IN9       0.120400
      6 C9          -4.7210     2.1440    -2.8970 ca         1 IN9      -0.125300
      7 C10         -5.3670     3.1410    -2.1880 ca         1 IN9       0.120400
      8 C11         -4.9070     4.4470    -2.2580 ca         1 IN9       0.075400
      9 C12         -3.8110     4.7550    -3.0450 ca         1 IN9       0.102900
     10 C13         -3.1680     3.7560    -3.7580 ca         1 IN9       0.075400
     11 C14         -4.8640    -3.7740    -2.2020 c3         1 IN9       0.086300
     12 S1           1.7850     0.0000     0.0000 ss         1 IN9      -0.499800
     13 N1          -0.2600     0.0060     1.2910 nd         1 IN9      -0.340000
     14 N2           0.7740     0.0010     2.1980 nd         1 IN9      -0.229000
     15 N3          -0.8820     0.0010    -1.0790 ns         1 IN9      -0.057400
     16 S2           3.5210     0.0010     2.6970 sh         1 IN9      -0.324100
     17 O1          -2.6420     0.0000     0.2760 o          1 IN9      -0.599100
     18 N4          -3.0650     0.0010    -1.9030 ns         1 IN9      -0.243900
     19 C5          -4.5100    -0.0000    -1.6670 c3         1 IN9      -0.034300
     20 C6          -5.0060    -1.4210    -1.5870 c          1 IN9       0.557100
     21 O2          -5.9670    -1.6900    -0.8970 o          1 IN9      -0.613100
     22 N5          -4.3820    -2.3930    -2.2800 ns         1 IN9      -0.194900
     23 F10         -6.4360     2.8410    -1.4210 f          1 IN9      -0.101900
     24 F11         -5.5350     5.4200    -1.5620 f          1 IN9      -0.092900
     25 F12         -3.3670     6.0290    -3.1180 f          1 IN9      -0.089900
     26 F13         -2.0980     4.0550    -4.5270 f          1 IN9      -0.092900
     27 H71         -6.2860     0.7220    -2.6410 hc         1 IN9       0.047200
     28 H72         -5.0040     0.2130    -3.7480 hc         1 IN9       0.047200
     29 H141        -5.8240    -3.8500    -2.6980 h1         1 IN9       0.012700
     30 H142        -4.1540    -4.4320    -2.6870 h1         1 IN9       0.012700
     31 H143        -4.9720    -4.0610    -1.1630 h1         1 IN9       0.012700
     32 HN3         -0.5290    -0.0370    -2.0140 hn         1 IN9       0.171500
     33 HS2          4.0930    -1.1940     2.6150 hs         1 IN9       0.197800
     34 HN4         -2.7110    -0.0440    -2.8380 hn         1 IN9       0.181500
     35 H5          -4.7240     0.5090    -0.7350 h1         1 IN9       0.099700
     36 HN5         -3.6000    -2.1680    -2.8620 hn         1 IN9       0.162500
     37 F8          -2.9990     1.4750    -4.3790 f          1 IN9      -0.101900
@<TRIPOS>BOND
     1     1    12 1   
     2     1    13 2   
     3     1    15 1   
     4     2    12 1   
     5     2    14 2   
     6     2    16 1   
     7     3    15 1   
     8     3    17 2   
     9     3    18 1   
    10     4     6 1   
    11     4    19 1   
    12     4    27 1   
    13     4    28 1   
    14     5     6 ar  
    15     5    10 ar  
    16     5    37 1   
    17     6     7 ar  
    18     7     8 ar  
    19     7    23 1   
    20     8     9 ar  
    21     8    24 1   
    22     9    10 ar  
    23     9    25 1   
    24    10    26 1   
    25    11    22 1   
    26    11    29 1   
    27    11    30 1   
    28    11    31 1   
    29    13    14 1   
    30    15    32 1   
    31    16    33 1   
    32    18    19 1   
    33    18    34 1   
    34    19    20 1   
    35    19    35 1   
    36    20    21 2   
    37    20    22 1   
    38    22    36 1   
@<TRIPOS>SUBSTRUCTURE
     1 IN9         1 TEMP              0 ****  ****    0 ROOT
