@<TRIPOS>MOLECULE
INA
   82    83     1     0     0
SMALL
bcc


@<TRIPOS>ATOM
      1 C1           0.0000     0.0000     0.0000 ca         1 INA      -0.088500
      2 C2           1.3830     0.0000     0.0000 ca         1 INA      -0.106500
      3 C3           2.0730     0.0000     1.1970 ca         1 INA      -0.073000
      4 C4           1.3840     0.0000     2.3930 ca         1 INA      -0.122300
      5 C5           0.0020    -0.0050     2.3950 ca         1 INA      -0.073000
      6 C6          -0.6900    -0.0010     1.1980 ca         1 INA      -0.106500
      7 C7           2.1390    -0.0000     3.6980 c3         1 INA       0.311200
      8 O8           2.3820     1.3690     4.1170 os         1 INA      -0.424400
      9 C9           3.0430     1.6150     5.2630 c          1 INA       0.686600
     10 O10          3.4380     0.6920     5.9470 o          1 INA      -0.672500
     11 C11          4.0590     3.1540     6.8560 c3         1 INA      -0.054800
     12 C12          5.3490     3.8770     6.4680 c3         1 INA      -0.033400
     13 C13          6.2100     2.9560     5.6010 c3         1 INA      -0.055200
     14 C14          7.4320     3.7250     5.0970 c3         1 INA      -0.004100
     15 C15          6.6700     1.7570     6.4320 c3         1 INA      -0.004100
     16 C16          3.2620     4.0190     7.7970 c          1 INA       0.564600
     17 O17          2.3880     4.7410     7.3640 o          1 INA      -0.649100
     18 N18          3.5190     3.9900     9.1200 ns         1 INA      -0.140500
     19 N19          2.7090     4.7110    10.0070 ns         1 INA      -0.171000
     20 N20          3.2680     2.8850     5.6520 ns         1 INA      -0.139900
     21 C21          2.9810     4.7040    11.3260 c          1 INA       0.584100
     22 O22          2.3200     5.3830    12.0870 o          1 INA      -0.686100
     23 C23          8.5570    -4.4680    17.6170 ca         1 INA      -0.088500
     24 C24          8.7370    -3.4120    18.4900 ca         1 INA      -0.106500
     25 C25          7.8930    -2.3190    18.4360 ca         1 INA      -0.073000
     26 C26          6.8700    -2.2810    17.5090 ca         1 INA      -0.122300
     27 C27          6.6860    -3.3400    16.6380 ca         1 INA      -0.073000
     28 C28          7.5320    -4.4320    16.6900 ca         1 INA      -0.106500
     29 C29          5.9490    -1.0900    17.4490 c3         1 INA       0.311200
     30 O30          6.4900    -0.1050    16.5300 os         1 INA      -0.424400
     31 C31          5.8330     1.0500    16.3170 c          1 INA       0.686600
     32 O32          4.7860     1.2670    16.8930 o          1 INA      -0.672500
     33 C33          5.5590     3.1610    15.1330 c3         1 INA      -0.054800
     34 C34          6.3570     4.4090    15.5180 c3         1 INA      -0.033400
     35 C35          6.5830     4.4240    17.0320 c3         1 INA      -0.055200
     36 C36          7.4730     5.6110    17.4030 c3         1 INA      -0.004100
     37 C37          5.2370     4.5510    17.7460 c3         1 INA      -0.004100
     38 C38          5.2750     3.1830    13.6540 c          1 INA       0.564600
     39 O39          6.0050     2.5930    12.8880 o          1 INA      -0.649100
     40 N40          4.2080     3.8590    13.1830 ns         1 INA      -0.140500
     41 N41          3.9870     3.9430    11.8020 ns         1 INA      -0.171000
     42 N42          6.3350     1.9630    15.4640 ns         1 INA      -0.139900
     43 H1          -0.5420     0.0020    -0.9380 ha         1 INA       0.102000
     44 H2           1.9240     0.0000    -0.9380 ha         1 INA       0.104000
     45 H3           3.1570     0.0020     1.1960 ha         1 INA       0.106500
     46 H5          -0.5390    -0.0050     3.3340 ha         1 INA       0.106500
     47 H6          -1.7730    -0.0030     1.1990 ha         1 INA       0.104000
     48 H71          3.0850    -0.5110     3.5670 h1         1 INA       0.012200
     49 H72          1.5540    -0.5110     4.4530 h1         1 INA       0.012200
     50 H11          4.3020     2.2180     7.3450 h1         1 INA       0.088200
     51 H121         5.1070     4.7740     5.9110 hc         1 INA       0.027450
     52 H122         5.8970     4.1450     7.3640 hc         1 INA       0.027450
     53 H13          5.6290     2.6080     4.7550 hc         1 INA       0.031700
     54 H141         7.1070     4.5960     4.5400 hc         1 INA       0.009200
     55 H142         8.0340     4.0400     5.9410 hc         1 INA       0.009200
     56 H143         8.0220     3.0850     4.4520 hc         1 INA       0.009200
     57 H151         7.4960     1.2660     5.9310 hc         1 INA       0.009200
     58 H152         6.9900     2.0970     7.4090 hc         1 INA       0.009200
     59 H153         5.8490     1.0590     6.5430 hc         1 INA       0.009200
     60 HN8          4.2710     3.4310     9.4720 hn         1 INA       0.211500
     61 HN9          1.9190     5.2210     9.6620 hn         1 INA       0.226500
     62 HN0          2.8840     3.6440     5.1270 hn         1 INA       0.194000
     63 H24          9.5400    -3.4410    19.2170 ha         1 INA       0.104000
     64 H25          8.0350    -1.4900    19.1190 ha         1 INA       0.106500
     65 H27          5.8840    -3.3110    15.9120 ha         1 INA       0.106500
     66 H28          7.3890    -5.2610    16.0070 ha         1 INA       0.104000
     67 H291         4.9720    -1.4050    17.1060 h1         1 INA       0.012200
     68 H292         5.8610    -0.6520    18.4370 h1         1 INA       0.012200
     69 H33          4.6240     3.1480    15.6800 h1         1 INA       0.088200
     70 H341         7.3140     4.3970    15.0100 hc         1 INA       0.027450
     71 H342         5.8050     5.2940    15.2260 hc         1 INA       0.027450
     72 H35          7.0660     3.5020    17.3330 hc         1 INA       0.031700
     73 H361         6.9720     6.5350    17.1400 hc         1 INA       0.009200
     74 H362         8.4100     5.5430    16.8640 hc         1 INA       0.009200
     75 H363         7.6680     5.5970    18.4680 hc         1 INA       0.009200
     76 H371         5.3930     4.9520    18.7400 hc         1 INA       0.009200
     77 H372         4.5920     5.2160    17.1850 hc         1 INA       0.009200
     78 H373         4.7730     3.5750    17.8190 hc         1 INA       0.009200
     79 HN4          3.5480     4.2580    13.8210 hn         1 INA       0.211500
     80 HN1          4.5870     3.4530    11.1690 hn         1 INA       0.226500
     81 HN2          7.2240     1.8080    15.0320 hn         1 INA       0.194000
     82 H23          9.2190    -5.3250    17.6580 ha         1 INA       0.102000
@<TRIPOS>BOND
     1     1     2 ar  
     2     1     6 ar  
     3     1    43 1   
     4     2     3 ar  
     5     2    44 1   
     6     3     4 ar  
     7     3    45 1   
     8     4     5 ar  
     9     4     7 1   
    10     5     6 ar  
    11     5    46 1   
    12     6    47 1   
    13     7     8 1   
    14     7    48 1   
    15     7    49 1   
    16     8     9 1   
    17     9    10 2   
    18     9    20 1   
    19    11    12 1   
    20    11    16 1   
    21    11    20 1   
    22    11    50 1   
    23    12    13 1   
    24    12    51 1   
    25    12    52 1   
    26    13    14 1   
    27    13    15 1   
    28    13    53 1   
    29    14    54 1   
    30    14    55 1   
    31    14    56 1   
    32    15    57 1   
    33    15    58 1   
    34    15    59 1   
    35    16    17 2   
    36    16    18 1   
    37    18    19 1   
    38    18    60 1   
    39    19    21 1   
    40    19    61 1   
    41    20    62 1   
    42    21    22 2   
    43    21    41 1   
    44    23    24 ar  
    45    23    28 ar  
    46    23    82 1   
    47    24    25 ar  
    48    24    63 1   
    49    25    26 ar  
    50    25    64 1   
    51    26    27 ar  
    52    26    29 1   
    53    27    28 ar  
    54    27    65 1   
    55    28    66 1   
    56    29    30 1   
    57    29    67 1   
    58    29    68 1   
    59    30    31 1   
    60    31    32 2   
    61    31    42 1   
    62    33    34 1   
    63    33    38 1   
    64    33    42 1   
    65    33    69 1   
    66    34    35 1   
    67    34    70 1   
    68    34    71 1   
    69    35    36 1   
    70    35    37 1   
    71    35    72 1   
    72    36    73 1   
    73    36    74 1   
    74    36    75 1   
    75    37    76 1   
    76    37    77 1   
    77    37    78 1   
    78    38    39 2   
    79    38    40 1   
    80    40    41 1   
    81    40    79 1   
    82    41    80 1   
    83    42    81 1   
@<TRIPOS>SUBSTRUCTURE
     1 INA         1 TEMP              0 ****  ****    0 ROOT
