@<TRIPOS>MOLECULE
molecule
   88    87     1     0     0
SMALL
bcc


@<TRIPOS>ATOM
      1 C1'          0.0000     0.0000     0.0000 c3         1 INB       0.096400
      2 C2'          1.5300     0.0000     0.0000 c3         1 INB       0.125700
      3 C3'          2.0400     0.0000     1.4420 c3         1 INB       0.134400
      4 O1'         -0.4770     0.0000    -1.3470 os         1 INB      -0.419600
      5 O3'          3.4680     0.0000     1.4420 os         1 INB      -0.549200
      6 N2'          2.0180     1.1980    -0.6900 ns         1 INB      -0.558900
      7 C'           1.6920     2.4200    -0.2280 c          1 INB       0.665100
      8 O'           0.9940     2.5300     0.7580 o          1 INB      -0.614100
      9 CM'          2.1930     3.6510    -0.9370 c3         1 INB      -0.171100
     10 P            3.9350    -0.0020     2.9820 p5         1 INB       1.283800
     11 O1P          3.4090     1.2050     3.6590 o          1 INB      -0.817000
     12 O2P          3.3640    -1.3170     3.7140 o          1 INB      -0.817000
     13 O3P          5.5430    -0.0000     3.0580 os         1 INB      -0.550200
     14 C1B          5.8920    -0.0020     4.4440 c3         1 INB       0.169400
     15 C2B          7.4150    -0.0010     4.5860 c3         1 INB       0.019700
     16 S            7.8580    -0.0030     6.3450 ss         1 INB      -0.360200
     17 CMB          9.6680    -0.0020     6.2140 c3         1 INB      -0.003000
     18 C1          -1.9040     0.0010    -1.2810 c3         1 INB       0.129400
     19 C2          -2.4810     0.0010    -2.6970 c3         1 INB      -0.083400
     20 C3          -4.0080     0.0000    -2.6270 c3         1 INB      -0.081400
     21 C4          -4.5850     0.0010    -4.0430 c3         1 INB      -0.080400
     22 C5          -6.1130     0.0000    -3.9720 c3         1 INB      -0.082400
     23 C6          -6.6910     0.0010    -5.3890 c3         1 INB      -0.082400
     24 C7          -8.2180     0.0000    -5.3180 c3         1 INB      -0.081400
     25 C8          -8.7960     0.0020    -6.7340 c3         1 INB      -0.081400
     26 C9         -10.3230     0.0010    -6.6640 c3         1 INB      -0.082400
     27 C10        -10.9010     0.0020    -8.0800 c3         1 INB      -0.082400
     28 C11        -12.4280     0.0020    -8.0090 c3         1 INB      -0.082400
     29 C12        -13.0060     0.0030    -9.4260 c3         1 INB      -0.081400
     30 C13        -14.5330     0.0020    -9.3550 c3         1 INB      -0.081400
     31 C14        -15.1110     0.0030   -10.7720 c3         1 INB      -0.081400
     32 C15        -16.6380     0.0020   -10.7010 c3         1 INB      -0.082400
     33 C16        -17.2160     0.0040   -12.1170 c3         1 INB      -0.081400
     34 C17        -18.7440     0.0030   -12.0470 c3         1 INB      -0.084400
     35 C18        -19.3210     0.0040   -13.4630 c3         1 INB      -0.092100
     36 H1'1        -0.3610    -0.8850     0.5110 h1         1 INB       0.050700
     37 H1'2        -0.3610     0.8840     0.5110 h1         1 INB       0.050700
     38 H2'          1.8910    -0.8840    -0.5110 h1         1 INB       0.062700
     39 H3'1         1.6790     0.8840     1.9530 h1         1 INB       0.077700
     40 H3'2         1.6790    -0.8850     1.9530 h1         1 INB       0.077700
     41 HN2'         2.6070     1.1070    -1.4940 hn         1 INB       0.307500
     42 HM'1         1.7890     4.5350    -0.4570 hc         1 INB       0.051700
     43 HM'2         1.8750     3.6260    -1.9730 hc         1 INB       0.051700
     44 HM'3         3.2750     3.6790    -0.8920 hc         1 INB       0.051700
     45 H1A1         5.4840     0.8810     4.9200 h1         1 INB       0.067700
     46 H1A2         5.4850    -0.8880     4.9170 h1         1 INB       0.067700
     47 H2'1         7.8230    -0.8840     4.1100 h1         1 INB       0.056200
     48 H2'2         7.8210     0.8850     4.1130 h1         1 INB       0.056200
     49 HMA1         9.9910     0.8880     5.6870 h1         1 INB       0.049700
     50 HMA2        10.1010    -0.0100     7.2070 h1         1 INB       0.049700
     51 HMA3         9.9910    -0.8810     5.6710 h1         1 INB       0.049700
     52 H11         -2.2400     0.8860    -0.7540 h1         1 INB       0.025700
     53 H12         -2.2410    -0.8830    -0.7530 h1         1 INB       0.025700
     54 H21         -2.1440    -0.8840    -3.2240 hc         1 INB       0.048700
     55 H22         -2.1440     0.8850    -3.2240 hc         1 INB       0.048700
     56 H31         -4.3450     0.8850    -2.1000 hc         1 INB       0.041200
     57 H32         -4.3450    -0.8840    -2.1000 hc         1 INB       0.041200
     58 H41         -4.2480    -0.8830    -4.5700 hc         1 INB       0.040700
     59 H42         -4.2480     0.8850    -4.5700 hc         1 INB       0.040700
     60 H51         -6.4500    -0.8850    -3.4460 hc         1 INB       0.041200
     61 H52         -6.4500     0.8840    -3.4440 hc         1 INB       0.041200
     62 H61         -6.3530    -0.8820    -5.9170 hc         1 INB       0.040200
     63 H62         -6.3540     0.8870    -5.9150 hc         1 INB       0.040200
     64 H71         -8.5540    -0.8850    -4.7920 hc         1 INB       0.040700
     65 H72         -8.5550     0.8840    -4.7900 hc         1 INB       0.040700
     66 H81         -8.4600     0.8870    -7.2600 hc         1 INB       0.040700
     67 H82         -8.4590    -0.8810    -7.2630 hc         1 INB       0.040700
     68 H91        -10.6610     0.8850    -6.1360 hc         1 INB       0.040700
     69 H92        -10.6600    -0.8840    -6.1380 hc         1 INB       0.040700
     70 H101       -10.5640     0.8870    -8.6070 hc         1 INB       0.040700
     71 H102       -10.5640    -0.8820    -8.6080 hc         1 INB       0.040700
     72 H111       -12.7650    -0.8830    -7.4830 hc         1 INB       0.040700
     73 H112       -12.7650     0.8860    -7.4810 hc         1 INB       0.040700
     74 H121       -12.6680    -0.8810    -9.9540 hc         1 INB       0.040700
     75 H122       -12.6700     0.8880    -9.9520 hc         1 INB       0.040700
     76 H131       -14.8710     0.8850    -8.8270 hc         1 INB       0.040700
     77 H132       -14.8700    -0.8830    -8.8290 hc         1 INB       0.040700
     78 H141       -14.7740    -0.8810   -11.3000 hc         1 INB       0.040700
     79 H142       -14.7740     0.8880   -11.2980 hc         1 INB       0.040700
     80 H151       -16.9750    -0.8830   -10.1740 hc         1 INB       0.040700
     81 H152       -16.9750     0.8860   -10.1730 hc         1 INB       0.040700
     82 H161       -16.8780    -0.8800   -12.6450 hc         1 INB       0.040700
     83 H162       -16.8790     0.8890   -12.6430 hc         1 INB       0.040700
     84 H171       -19.0800    -0.8830   -11.5220 hc         1 INB       0.039700
     85 H172       -19.0810     0.8860   -11.5190 hc         1 INB       0.039700
     86 H181       -18.9890    -0.8830   -13.9890 hc         1 INB       0.032033
     87 H182       -20.4030     0.0100   -13.4110 hc         1 INB       0.032033
     88 H183       -18.9800     0.8860   -13.9910 hc         1 INB       0.032033
@<TRIPOS>BOND
     1     1     2 1
     2     1     4 1
     3     1    36 1
     4     1    37 1
     5     2     3 1
     6     2     6 1
     7     2    38 1
     8     3     5 1
     9     3    39 1
    10     3    40 1
    11     4    18 1
    12     5    10 1
    13     6     7 1
    14     6    41 1
    15     7     8 2
    16     7     9 1
    17     9    42 1
    18     9    43 1
    19     9    44 1
    20    10    11 1
    21    10    12 1
    22    10    13 1
    23    13    14 1
    24    14    15 1
    25    14    45 1
    26    14    46 1
    27    15    16 1
    28    15    47 1
    29    15    48 1
    30    16    17 1
    31    17    49 1
    32    17    50 1
    33    17    51 1
    34    18    19 1
    35    18    52 1
    36    18    53 1
    37    19    20 1
    38    19    54 1
    39    19    55 1
    40    20    21 1
    41    20    56 1
    42    20    57 1
    43    21    22 1
    44    21    58 1
    45    21    59 1
    46    22    23 1
    47    22    60 1
    48    22    61 1
    49    23    24 1
    50    23    62 1
    51    23    63 1
    52    24    25 1
    53    24    64 1
    54    24    65 1
    55    25    26 1
    56    25    66 1
    57    25    67 1
    58    26    27 1
    59    26    68 1
    60    26    69 1
    61    27    28 1
    62    27    70 1
    63    27    71 1
    64    28    29 1
    65    28    72 1
    66    28    73 1
    67    29    30 1
    68    29    74 1
    69    29    75 1
    70    30    31 1
    71    30    76 1
    72    30    77 1
    73    31    32 1
    74    31    78 1
    75    31    79 1
    76    32    33 1
    77    32    80 1
    78    32    81 1
    79    33    34 1
    80    33    82 1
    81    33    83 1
    82    34    35 1
    83    34    84 1
    84    34    85 1
    85    35    86 1
    86    35    87 1
    87    35    88 1
@<TRIPOS>SUBSTRUCTURE
     1 INB         1 TEMP              0 ****  ****    0 ROOT
