@<TRIPOS>MOLECULE
INC
   31    30     1     0     0
SMALL
bcc


@<TRIPOS>ATOM
      1 CA1          0.0000     0.0000     0.0000 c3         1 INC      -0.062100
      2 C1           1.5070     0.0000     0.0000 c          1 INC       0.592100
      3 O1           2.1130     0.0000     1.0510 o          1 INC      -0.607100
      4 N2           2.1810    -0.0020    -1.1660 n          1 INC      -0.018300
      5 OH2          1.4730    -0.0030    -2.3930 oh         1 INC      -0.449100
      6 CA2          3.6460    -0.0030    -1.1660 c3         1 INC      -0.011300
      7 CB2          4.1550    -1.1810    -0.3350 c3         1 INC      -0.061400
      8 CG2          3.6890    -2.4920    -0.9710 c3         1 INC      -0.054700
      9 CD1          4.3610    -2.6640    -2.3340 c3         1 INC       0.002400
     10 CD2          4.0730    -3.6630    -0.0630 c3         1 INC       0.002400
     11 C2           4.1480     1.2870    -0.5710 c          1 INC       0.667100
     12 O2           3.4960     1.8590     0.2700 o          1 INC      -0.550000
     13 O3           5.3200     1.8000    -0.9730 os         1 INC      -0.426900
     14 C3           5.8050     3.0420    -0.3990 c3         1 INC       0.277700
     15 HA11        -0.3610    -0.1090     1.0160 hc         1 INC       0.024367
     16 HA12        -0.3610    -0.8250    -0.6020 hc         1 INC       0.024367
     17 HA13        -0.3610     0.9340    -0.4130 hc         1 INC       0.024367
     18 HO2          1.4400     0.8750    -2.7360 ho         1 INC       0.394000
     19 HA2          4.0070    -0.0960    -2.1830 h1         1 INC       0.057700
     20 HB21         3.7620    -1.1090     0.6720 hc         1 INC       0.055200
     21 HB22         5.2370    -1.1600    -0.3040 hc         1 INC       0.055200
     22 HG2          2.6140    -2.4710    -1.0980 hc         1 INC       0.033700
     23 HD11         5.3680    -2.2680    -2.2930 hc         1 INC       0.004867
     24 HD12         3.7930    -2.1280    -3.0860 hc         1 INC       0.004867
     25 HD13         4.3960    -3.7160    -2.5890 hc         1 INC       0.004867
     26 HD21         3.6560    -3.5070     0.9240 hc         1 INC       0.004867
     27 HD22         3.6830    -4.5850    -0.4780 hc         1 INC       0.004867
     28 HD23         5.1520    -3.7270     0.0070 hc         1 INC       0.004867
     29 H31          5.9510     2.9150     0.6660 h1         1 INC       0.000367
     30 H32          6.7460     3.3120    -0.8640 h1         1 INC       0.000367
     31 H33          5.0790     3.8270    -0.5730 h1         1 INC       0.000367
@<TRIPOS>BOND
     1     1     2 1   
     2     1    15 1   
     3     1    16 1   
     4     1    17 1   
     5     2     3 2   
     6     2     4 1   
     7     4     5 1   
     8     4     6 1   
     9     5    18 1   
    10     6     7 1   
    11     6    11 1   
    12     6    19 1   
    13     7     8 1   
    14     7    20 1   
    15     7    21 1   
    16     8     9 1   
    17     8    10 1   
    18     8    22 1   
    19     9    23 1   
    20     9    24 1   
    21     9    25 1   
    22    10    26 1   
    23    10    27 1   
    24    10    28 1   
    25    11    12 2   
    26    11    13 1   
    27    13    14 1   
    28    14    29 1   
    29    14    30 1   
    30    14    31 1   
@<TRIPOS>SUBSTRUCTURE
     1 INC         1 TEMP              0 ****  ****    0 ROOT
