@<TRIPOS>MOLECULE
molecule
   16    17     1     0     0
SMALL
bcc


@<TRIPOS>ATOM
      1 N1           0.0000     0.0000     0.0000 na         1 IND      -0.185400
      2 C2           1.3680     0.0000     0.0000 cc         1 IND      -0.103100
      3 C3           1.8250     0.0000     1.2620 cd         1 IND      -0.199200
      4 C4           0.4810     0.0020     3.5260 ca         1 IND      -0.078000
      5 C5          -0.7800     0.0030     4.0520 ca         1 IND      -0.158000
      6 C6          -1.8910     0.0030     3.2210 ca         1 IND      -0.108000
      7 C7          -1.7420     0.0020     1.8510 ca         1 IND      -0.145000
      8 C8          -0.4680     0.0060     1.2950 ca         1 IND      -0.039200
      9 C9           0.6540     0.0010     2.1420 ca         1 IND      -0.104800
     10 HN1         -0.5750    -0.0000    -0.8190 hn         1 IND       0.294700
     11 H2           1.9900    -0.0000    -0.8870 h4         1 IND       0.163000
     12 H3           2.8630     0.0000     1.5710 ha         1 IND       0.154000
     13 H4           1.3430     0.0010     4.1810 ha         1 IND       0.129000
     14 H5          -0.9140     0.0040     5.1270 ha         1 IND       0.128000
     15 H6          -2.8840     0.0040     3.6530 ha         1 IND       0.129000
     16 H7          -2.6150     0.0020     1.2090 ha         1 IND       0.124000
@<TRIPOS>BOND
     1     1     2 1
     2     1     8 1
     3     1    10 1
     4     2     3 2
     5     2    11 1
     6     3     9 1
     7     3    12 1
     8     4     5 ar
     9     4     9 ar
    10     4    13 1
    11     5     6 ar
    12     5    14 1
    13     6     7 ar
    14     6    15 1
    15     7     8 ar
    16     7    16 1
    17     8     9 ar
@<TRIPOS>SUBSTRUCTURE
     1 IND         1 TEMP              0 ****  ****    0 ROOT
