@<TRIPOS>MOLECULE
IND
   16    17     1     0     0
SMALL
bcc


@<TRIPOS>ATOM
      1 N1         -0.0170    0.0010   -0.0250 na        1 IND     -0.196400
      2 C2          1.3810   -0.0000   -0.0140 cc        1 IND     -0.109100
      3 C3          1.8500    0.0010    1.2960 cd        1 IND     -0.187200
      4 C4          0.5140    0.0020    3.5470 ca        1 IND     -0.082000
      5 C5         -0.7750    0.0030    4.0560 ca        1 IND     -0.159000
      6 C6         -1.8980    0.0030    3.2080 ca        1 IND     -0.113000
      7 C7         -1.7670    0.0020    1.8280 ca        1 IND     -0.146000
      8 C8         -0.4670    0.0020    1.2970 ca        1 IND     -0.047200
      9 C9          0.6930    0.0020    2.1630 ca        1 IND     -0.095800
     10 HN1        -0.5900    0.0010   -0.8250 hn        1 IND      0.297700
     11 H2          1.9410   -0.0010   -0.9520 h4        1 IND      0.163000
     12 H3          2.8860    0.0000    1.6180 ha        1 IND      0.156000
     13 H4          1.3870    0.0020    4.2150 ha        1 IND      0.133000
     14 H5         -0.9330    0.0040    5.1450 ha        1 IND      0.128000
     15 H6         -2.9030    0.0040    3.6540 ha        1 IND      0.128000
     16 H7         -2.6470    0.0030    1.1730 ha        1 IND      0.130000
@<TRIPOS>BOND
     1    1    2 1   
     2    1    8 1   
     3    1   10 1   
     4    2    3 2   
     5    2   11 1   
     6    3    9 1   
     7    3   12 1   
     8    4    5 ar  
     9    4    9 ar  
    10    4   13 1   
    11    5    6 ar  
    12    5   14 1   
    13    6    7 ar  
    14    6   15 1   
    15    7    8 ar  
    16    7   16 1   
    17    8    9 ar  
@<TRIPOS>SUBSTRUCTURE
     1 IND         1 TEMP              0 ****  ****    0 ROOT
