@<TRIPOS>MOLECULE
INE
   17    18     1     0     0
SMALL
bcc


@<TRIPOS>ATOM
      1 N1           0.0000     0.0000     0.0000 na         1 INE       0.445900
      2 N2           1.3980     0.0000     0.0000 nc         1 INE      -0.592100
      3 C3           1.8470     0.0000     1.2230 cd         1 INE       0.393900
      4 C4           0.5440     0.0030     3.5100 ca         1 INE       0.060000
      5 C5          -0.7080     0.0040     4.0540 ca         1 INE      -0.178000
      6 C6          -1.8330     0.0030     3.2400 ca         1 INE       0.055000
      7 C7          -1.7120     0.0030     1.8780 ca         1 INE      -0.475200
      8 C8          -0.4480    -0.0030     1.2950 ca         1 INE      -0.121200
      9 C9           0.6940     0.0010     2.1190 ca         1 INE      -0.265900
     10 N10         -2.9220     0.0020     1.0270 no         1 INE       1.059200
     11 O11         -4.0270     0.0030     1.5380 o          1 INE      -0.459500
     12 O12         -2.8130     0.0070    -0.1870 o          1 INE      -0.459500
     13 Br           3.6650    -0.0010     1.7440 br         1 INE      -0.013300
     14 H11         -0.5810     0.0000    -0.8150 hn         1 INE       0.189700
     15 H41          1.4170     0.0030     4.1520 ha         1 INE       0.111000
     16 H51         -0.8250     0.0040     5.1310 ha         1 INE       0.121000
     17 H61         -2.8190     0.0040     3.6890 ha         1 INE       0.130000
@<TRIPOS>BOND
     1     1     2 1   
     2     1     8 1   
     3     1    14 1   
     4     2     3 2   
     5     3     9 1   
     6     3    13 1   
     7     4     5 ar  
     8     4     9 ar  
     9     4    15 1   
    10     5     6 ar  
    11     5    16 1   
    12     6     7 ar  
    13     6    17 1   
    14     7     8 ar  
    15     7    10 1   
    16     8     9 ar  
    17    10    11 1   
    18    10    12 1   
@<TRIPOS>SUBSTRUCTURE
     1 INE         1 TEMP              0 ****  ****    0 ROOT
