@<TRIPOS>MOLECULE
molecule
   27    27     1     0     0
SMALL
bcc


@<TRIPOS>ATOM
      1 N            0.0000     0.0000     0.0000 ns         1 INF      -0.557900
      2 CA           1.4640     0.0000     0.0000 c3         1 INF       0.035700
      3 C            1.9670     0.0000     1.4210 c          1 INF       0.883600
      4 O            3.0220     0.5230     1.6890 o          1 INF      -0.838300
      5 CB           1.9740    -1.2470    -0.7220 c3         1 INF      -0.044100
      6 CG           1.4720    -1.2470    -2.1430 ca         1 INF      -0.053300
      7 CD1          2.2180    -0.6470    -3.1390 ca         1 INF      -0.126500
      8 CD2          0.2670    -1.8500    -2.4490 ca         1 INF      -0.126500
      9 CE1          1.7570    -0.6470    -4.4430 ca         1 INF      -0.133000
     10 CE2         -0.1960    -1.8460    -3.7520 ca         1 INF      -0.133000
     11 CZ           0.5510    -1.2460    -4.7480 ca         1 INF      -0.151000
     12 OXT          1.2420    -0.5820     2.3890 o          1 INF      -0.838300
     13 C1          -0.6740     1.1660     0.0020 c          1 INF       0.803100
     14 N2          -2.0220     1.1670     0.0010 ns         1 INF      -0.501400
     15 O1          -0.0670     2.2190     0.0020 o          1 INF      -0.637100
     16 O2          -2.7310     2.3910     0.0030 oh         1 INF      -0.359100
     17 H           -0.4990    -0.8650     0.0700 hn         1 INF       0.295500
     18 HA           1.8240     0.8850    -0.5110 h1         1 INF       0.079700
     19 HB1          1.6140    -2.1330    -0.2120 hc         1 INF       0.060700
     20 HB2          3.0580    -1.2480    -0.7220 hc         1 INF       0.060700
     21 HD1          3.1650    -0.1780    -2.8990 ha         1 INF       0.130000
     22 HD2         -0.3170    -2.3210    -1.6680 ha         1 INF       0.130000
     23 HE1          2.3410    -0.1770    -5.2240 ha         1 INF       0.114500
     24 HE2         -1.1410    -2.3170    -3.9930 ha         1 INF       0.114500
     25 HZ           0.1890    -1.2440    -5.7690 ha         1 INF       0.112000
     26 H2N         -2.5230     0.3000     0.0110 hn         1 INF       0.301500
     27 H2O         -3.6580     2.2180    -0.0010 ho         1 INF       0.379000
@<TRIPOS>BOND
     1     1     2 1
     2     1    13 1
     3     1    17 1
     4     2     3 1
     5     2     5 1
     6     2    18 1
     7     3     4 1
     8     3    12 1
     9     5     6 1
    10     5    19 1
    11     5    20 1
    12     6     7 ar
    13     6     8 ar
    14     7     9 ar
    15     7    21 1
    16     8    10 ar
    17     8    22 1
    18     9    11 ar
    19     9    23 1
    20    10    11 ar
    21    10    24 1
    22    11    25 1
    23    13    14 1
    24    13    15 2
    25    14    16 1
    26    14    26 1
    27    16    27 1
@<TRIPOS>SUBSTRUCTURE
     1 INF         1 TEMP              0 ****  ****    0 ROOT
