@<TRIPOS>MOLECULE
molecule
   27    27     1     0     0
SMALL
bcc


@<TRIPOS>ATOM
      1 N            0.0000     0.0000     0.0000 ns         1 ING      -0.464900
      2 CA           1.4640     0.0000     0.0000 c3         1 ING       0.004700
      3 C            1.9670     0.0000     1.4200 c          1 ING       0.874600
      4 O            1.2420     0.5820     2.3890 o          1 ING      -0.801300
      5 CG           1.4710     1.2480    -2.1420 ca         1 ING      -0.083300
      6 CB           1.9750     1.2480    -0.7220 c3         1 ING      -0.041100
      7 CD1          0.2640     1.8470    -2.4480 ca         1 ING      -0.136500
      8 CD2          2.2190     0.6540    -3.1400 ca         1 ING      -0.136500
      9 CE1         -0.1980     1.8460    -3.7510 ca         1 ING      -0.128500
     10 CE2          1.7560     0.6490    -4.4430 ca         1 ING      -0.128500
     11 CZ           0.5480     1.2480    -4.7480 ca         1 ING      -0.136000
     12 OXT          3.0230    -0.5220     1.6870 o          1 ING      -0.801300
     13 C1          -0.6750    -1.1650     0.0020 c          1 ING       0.554100
     14 N1          -2.0220    -1.1670     0.0010 nz         1 ING      -0.665400
     15 O1          -0.0670    -2.2190     0.0010 o          1 ING      -0.524100
     16 H           -0.5000     0.8660     0.0400 hn         1 ING       0.321500
     17 HA           1.8250    -0.8850    -0.5100 h1         1 ING       0.090700
     18 HB1          3.0580     1.2470    -0.7220 hc         1 ING       0.081700
     19 HB2          1.6150     2.1330    -0.2110 hc         1 ING       0.081700
     20 HD1         -0.3220     2.3160    -1.6670 ha         1 ING       0.129500
     21 HD2          3.1660     0.1850    -2.9000 ha         1 ING       0.129500
     22 HE1         -1.1450     2.3150    -3.9910 ha         1 ING       0.128000
     23 HE2          2.3420     0.1820    -5.2250 ha         1 ING       0.128000
     24 HZ           0.1860     1.2460    -5.7690 ha         1 ING       0.129000
     25 HN11        -2.3560    -0.9270    -0.9110 hn         1 ING       0.464467
     26 HN12        -2.3550    -2.0770     0.2500 hn         1 ING       0.464467
     27 H13         -2.3570    -0.4960     0.6650 hn         1 ING       0.464467
@<TRIPOS>BOND
     1     1     2 1
     2     1    13 1
     3     1    16 1
     4     2     3 1
     5     2     6 1
     6     2    17 1
     7     3     4 1
     8     3    12 1
     9     5     6 1
    10     5     7 ar
    11     5     8 ar
    12     6    18 1
    13     6    19 1
    14     7     9 ar
    15     7    20 1
    16     8    10 ar
    17     8    21 1
    18     9    11 ar
    19     9    22 1
    20    10    11 ar
    21    10    23 1
    22    11    24 1
    23    13    14 1
    24    13    15 2
    25    14    25 1
    26    14    26 1
    27    27    14 1
@<TRIPOS>SUBSTRUCTURE
     1 ING         1 TEMP              0 ****  ****    0 ROOT
