@<TRIPOS>MOLECULE
INH
   69    70     1     0     0
SMALL
bcc


@<TRIPOS>ATOM
      1 C1         -1.2770   -0.9580   -1.2960 c3        1 INH     -0.080100
      2 C2         -0.1330   -0.9480   -2.3130 c3        1 INH      0.099500
      3 C3          0.3900   -2.3890   -2.4230 c         1 INH      0.878600
      4 O4          1.0090   -2.9370   -1.4630 o         1 INH     -0.867300
      5 O5          0.1850   -3.0420   -3.5060 o         1 INH     -0.867300
      6 N6          0.8780    0.0330   -1.9470 n3        1 INH     -0.819200
      7 C7          1.7270    0.5050   -3.0190 c3        1 INH      0.142500
      8 C8          2.0410    2.0100   -2.8870 c3        1 INH     -0.070400
      9 C9          0.7950    2.8540   -3.0660 c3        1 INH     -0.034100
     10 C10         1.1130    4.3080   -2.9990 ca        1 INH     -0.078300
     11 C11         1.0910    5.0970   -4.1550 ca        1 INH     -0.127500
     12 C12         1.3790    6.4590   -4.0820 ca        1 INH     -0.129000
     13 C13         1.6920    7.0440   -2.8560 ca        1 INH     -0.134000
     14 C14         1.7160    6.2630   -1.7000 ca        1 INH     -0.129000
     15 C15         1.4270    4.9020   -1.7700 ca        1 INH     -0.127500
     16 C16         3.1140   -0.1860   -3.0620 c         1 INH      0.629100
     17 O17         3.7650   -0.4110   -2.0230 o         1 INH     -0.610100
     18 N18         3.6330   -0.5070   -4.3040 n         1 INH     -0.574900
     19 C19         4.9670   -1.0180   -4.4680 c3        1 INH      0.040700
     20 C20         5.0530   -2.5120   -4.8280 c3        1 INH     -0.093400
     21 C21         4.4590   -3.3940   -3.7490 c3        1 INH     -0.093400
     22 C22         3.1510   -4.0220   -4.2370 c3        1 INH      0.003300
     23 N23         2.4250   -4.6850   -3.1710 nh        1 INH     -0.354100
     24 C24         1.1090   -5.1010   -3.3960 cz        1 INH      0.537300
     25 N25         0.6900   -5.4500   -4.6900 nh        1 INH     -0.455700
     26 N26         0.3590   -5.5420   -2.3000 nh        1 INH     -0.455700
     27 C27         5.6710   -0.2590   -5.6310 c         1 INH      0.646100
     28 O28         5.1680   -0.2750   -6.7690 o         1 INH     -0.597100
     29 N29         6.8530    0.3800   -5.3120 n         1 INH     -0.460100
     30 C30         7.6780    1.1290   -6.1710 ca        1 INH      0.062600
     31 C31         7.4900    1.1810   -7.5680 ca        1 INH     -0.166000
     32 C32         8.3570    1.9310   -8.3600 ca        1 INH     -0.105000
     33 C33         9.4170    2.6350   -7.7940 ca        1 INH     -0.154000
     34 C34         9.6100    2.5890   -6.4130 ca        1 INH     -0.105000
     35 C35         8.7570    1.8500   -5.6030 ca        1 INH     -0.166000
     36 H36        -2.0670   -1.6570   -1.6580 hc        1 INH      0.040033
     37 H37        -1.7180    0.0600   -1.1830 hc        1 INH      0.040033
     38 H38        -0.9120   -1.3100   -0.3020 hc        1 INH      0.040033
     39 H39        -0.5620   -0.6620   -3.3190 h1        1 INH      0.060700
     40 H40         1.4170   -0.2800   -1.1590 hn        1 INH      0.402800
     41 H41         1.1960    0.3500   -4.0060 h1        1 INH      0.064700
     42 H42         2.5020    2.2160   -1.8860 hc        1 INH      0.054700
     43 H43         2.7940    2.2780   -3.6740 hc        1 INH      0.054700
     44 H44         0.0510    2.6020   -2.2630 hc        1 INH      0.057200
     45 H45         0.3160    2.6100   -4.0520 hc        1 INH      0.057200
     46 H46         0.8440    4.6410   -5.1250 ha        1 INH      0.132500
     47 H47         1.3590    7.0720   -4.9950 ha        1 INH      0.129500
     48 H48         1.9190    8.1180   -2.8000 ha        1 INH      0.129000
     49 H49         1.9610    6.7220   -0.7310 ha        1 INH      0.129500
     50 H50         1.4440    4.2850   -0.8590 ha        1 INH      0.132500
     51 H51         3.0870   -0.3930   -5.1250 hn        1 INH      0.328500
     52 H52         5.5130   -0.8680   -3.4860 h1        1 INH      0.094700
     53 H53         4.5550   -2.6870   -5.8180 hc        1 INH      0.061200
     54 H54         6.1400   -2.7600   -4.9570 hc        1 INH      0.061200
     55 H55         5.1830   -4.2090   -3.4860 hc        1 INH      0.070200
     56 H56         4.2800   -2.7940   -2.8140 hc        1 INH      0.070200
     57 H57         2.5080   -3.2130   -4.6960 h1        1 INH      0.058200
     58 H58         3.3920   -4.7870   -5.0310 h1        1 INH      0.058200
     59 H59         2.5620   -4.2600   -2.2610 hn        1 INH      0.321700
     60 H60         1.1230   -4.9360   -5.4280 hn        1 INH      0.285200
     61 H61        -0.2980   -5.5370   -4.8040 hn        1 INH      0.285200
     62 H62         0.5520   -5.0490   -1.4410 hn        1 INH      0.285200
     63 H63        -0.6130   -5.6830   -2.4700 hn        1 INH      0.285200
     64 H64         7.1190    0.3930   -4.3510 hn        1 INH      0.322500
     65 H65         6.6590    0.6380   -8.0460 ha        1 INH      0.150000
     66 H66         8.1960    1.9620   -9.4480 ha        1 INH      0.134000
     67 H67        10.0950    3.2230   -8.4280 ha        1 INH      0.134000
     68 H68        10.4440    3.1440   -5.9570 ha        1 INH      0.134000
     69 H69         8.9310    1.8330   -4.5160 ha        1 INH      0.150000
@<TRIPOS>BOND
     1    1    2 1   
     2    1   36 1   
     3    1   37 1   
     4    1   38 1   
     5    2    3 1   
     6    2    6 1   
     7    2   39 1   
     8    3    4 1   
     9    3    5 1   
    10    6    7 1   
    11    6   40 1   
    12    7    8 1   
    13    7   16 1   
    14    7   41 1   
    15    8    9 1   
    16    8   42 1   
    17    8   43 1   
    18    9   10 1   
    19    9   44 1   
    20    9   45 1   
    21   10   11 ar  
    22   10   15 ar  
    23   11   12 ar  
    24   11   46 1   
    25   12   13 ar  
    26   12   47 1   
    27   13   14 ar  
    28   13   48 1   
    29   14   15 ar  
    30   14   49 1   
    31   15   50 1   
    32   16   17 2   
    33   16   18 1   
    34   18   19 1   
    35   18   51 1   
    36   19   20 1   
    37   19   27 1   
    38   19   52 1   
    39   20   21 1   
    40   20   53 1   
    41   20   54 1   
    42   21   22 1   
    43   21   55 1   
    44   21   56 1   
    45   22   23 1   
    46   22   57 1   
    47   22   58 1   
    48   23   24 2   
    49   23   59 1   
    50   24   25 1   
    51   24   26 1   
    52   25   60 1   
    53   25   61 1   
    54   26   62 1   
    55   26   63 1   
    56   27   28 2   
    57   27   29 1   
    58   29   30 1   
    59   29   64 1   
    60   30   31 ar  
    61   30   35 ar  
    62   31   32 ar  
    63   31   65 1   
    64   32   33 ar  
    65   32   66 1   
    66   33   34 ar  
    67   33   67 1   
    68   34   35 ar  
    69   34   68 1   
    70   35   69 1   
@<TRIPOS>SUBSTRUCTURE
     1 INH         1 TEMP              0 ****  ****    0 ROOT
