@<TRIPOS>MOLECULE
molecule
   70    71     1     0     0
SMALL
bcc


@<TRIPOS>ATOM
      1 C1           0.0000     0.0000     0.0000 c3         1 INH      -0.087100
      2 C2           1.5300     0.0000     0.0000 c3         1 INH       0.126500
      3 C3           2.0320     0.0000     1.4210 c          1 INH       0.871600
      4 O4           1.7080    -1.0060     2.2470 o          1 INH      -0.585300
      5 O5           2.7270     0.9070     1.8160 o          1 INH      -0.585300
      6 N6           2.0200     1.2000    -0.6930 n7         1 INH      -0.783200
      7 C7           1.9930     1.0130    -2.1490 c3         1 INH       0.095500
      8 C8           1.9970     2.3800    -2.8380 c3         1 INH      -0.059400
      9 C9           0.6960     3.1180    -2.5150 c3         1 INH      -0.030100
     10 C10          0.7000     4.4630    -3.1930 ca         1 INH      -0.089300
     11 C11          0.1850     4.5950    -4.4690 ca         1 INH      -0.124500
     12 C12          0.1890     5.8300    -5.0910 ca         1 INH      -0.124000
     13 C13          0.7050     6.9320    -4.4360 ca         1 INH      -0.126000
     14 C14          1.2180     6.8000    -3.1600 ca         1 INH      -0.124000
     15 C15          1.2110     5.5660    -2.5360 ca         1 INH      -0.124500
     16 C16          3.2070     0.2310    -2.5790 c          1 INH       0.628100
     17 O17          4.1510     0.1160    -1.8260 o          1 INH      -0.586100
     18 N18          3.2450    -0.3380    -3.7990 ns         1 INH      -0.577900
     19 C19          4.4260    -1.0990    -4.2170 c3         1 INH       0.044700
     20 C20          4.0260    -2.1170    -5.2850 c3         1 INH      -0.089400
     21 C21          3.0760    -3.1500    -4.6740 c3         1 INH      -0.094400
     22 C22          2.6740    -4.1690    -5.7420 c3         1 INH       0.019300
     23 N23          1.7650    -5.1570    -5.1560 nu         1 INH      -0.376100
     24 C24          1.2710    -6.1730    -5.9280 c2         1 INH       0.191700
     25 N25          1.6170    -6.2650    -7.2110 nz         1 INH      -0.701600
     26 N26          0.4430    -7.0710    -5.3960 nv         1 INH      -0.475200
     27 C27          5.4560    -0.1550    -4.7830 c          1 INH       0.639100
     28 O28          5.2260     1.0350    -4.8340 o          1 INH      -0.554100
     29 N29          6.6330    -0.6340    -5.2340 ns         1 INH      -0.477100
     30 C30          7.6270     0.2490    -5.6700 ca         1 INH       0.038600
     31 C31          7.7770     1.4850    -5.0560 ca         1 INH      -0.140500
     32 C32          8.7590     2.3550    -5.4870 ca         1 INH      -0.108000
     33 C33          9.5930     1.9950    -6.5310 ca         1 INH      -0.132000
     34 C34          9.4460     0.7650    -7.1450 ca         1 INH      -0.108000
     35 C35          8.4690    -0.1110    -6.7130 ca         1 INH      -0.140500
     36 H36         -0.3610    -0.7250     0.7190 hc         1 INH       0.052367
     37 H37         -0.3610    -0.2600    -0.9880 hc         1 INH       0.052367
     38 H38         -0.3610     0.9850     0.2690 hc         1 INH       0.052367
     39 H39          1.8910    -0.8850    -0.5100 h1         1 INH       0.039700
     40 H40          2.9560     1.3960    -0.3990 hn         1 INH       0.413800
     41 H41          1.0970     0.4710    -2.4270 h1         1 INH       0.058700
     42 H42          2.8400     2.9600    -2.4830 hc         1 INH       0.060700
     43 H43          2.0780     2.2430    -3.9100 hc         1 INH       0.060700
     44 H44         -0.1470     2.5370    -2.8700 hc         1 INH       0.056700
     45 H45          0.6150     3.2540    -1.4430 hc         1 INH       0.056700
     46 H46         -0.2190     3.7310    -4.9820 ha         1 INH       0.128000
     47 H47         -0.2130     5.9330    -6.0910 ha         1 INH       0.131000
     48 H48          0.7100     7.8990    -4.9240 ha         1 INH       0.132000
     49 H49          1.6210     7.6650    -2.6460 ha         1 INH       0.131000
     50 H50          1.6130     5.4630    -1.5350 ha         1 INH       0.128000
     51 H51          2.4820    -0.2120    -4.4340 hn         1 INH       0.316500
     52 H52          4.8430    -1.6170    -3.3610 h1         1 INH       0.103700
     53 H53          4.9110    -2.6180    -5.6570 hc         1 INH       0.059200
     54 H54          3.5280    -1.6080    -6.1010 hc         1 INH       0.059200
     55 H55          2.1900    -2.6490    -4.3010 hc         1 INH       0.075200
     56 H56          3.5730    -3.6590    -3.8570 hc         1 INH       0.075200
     57 H57          3.5600    -4.6690    -6.1140 h1         1 INH       0.051200
     58 H58          2.1770    -3.6590    -6.5580 h1         1 INH       0.051200
     59 H59          1.5090    -5.0920    -4.1910 hn         1 INH       0.343700
     60 H60          1.3320    -5.4350    -7.6930 hn         1 INH       0.462467
     61 H61          1.1680    -7.0600    -7.6210 hn         1 INH       0.462467
     62 H62          0.0820    -7.8140    -5.9600 hn         1 INH       0.328200
     63 H63          0.1830    -7.0030    -4.4320 hn         1 INH       0.328200
     64 H64          6.8100    -1.6190    -5.2210 hn         1 INH       0.311500
     65 H65          7.1250     1.7670    -4.2380 ha         1 INH       0.141000
     66 H66          8.8760     3.3190    -5.0080 ha         1 INH       0.139500
     67 H67         10.3610     2.6800    -6.8700 ha         1 INH       0.138000
     68 H68         10.1020     0.4850    -7.9600 ha         1 INH       0.139500
     69 H69          8.3540    -1.0750    -7.1940 ha         1 INH       0.141000
     70 H253         2.6090    -6.3770    -7.2820 hn         1 INH       0.462467
@<TRIPOS>BOND
     1     1     2 1
     2     1    36 1
     3     1    37 1
     4     1    38 1
     5     2     3 1
     6     2     6 1
     7     2    39 1
     8     3     4 1
     9     3     5 1
    10     6     7 1
    11     6    40 1
    12     7     8 1
    13     7    16 1
    14     7    41 1
    15     8     9 1
    16     8    42 1
    17     8    43 1
    18     9    10 1
    19     9    44 1
    20     9    45 1
    21    10    11 ar
    22    10    15 ar
    23    11    12 ar
    24    11    46 1
    25    12    13 ar
    26    12    47 1
    27    13    14 ar
    28    13    48 1
    29    14    15 ar
    30    14    49 1
    31    15    50 1
    32    16    17 2
    33    16    18 1
    34    18    19 1
    35    18    51 1
    36    19    20 1
    37    19    27 1
    38    19    52 1
    39    20    21 1
    40    20    53 1
    41    20    54 1
    42    21    22 1
    43    21    55 1
    44    21    56 1
    45    22    23 1
    46    22    57 1
    47    22    58 1
    48    23    24 2
    49    23    59 1
    50    24    25 1
    51    24    26 1
    52    25    60 1
    53    25    61 1
    54    26    62 1
    55    26    63 1
    56    27    28 2
    57    27    29 1
    58    29    30 1
    59    29    64 1
    60    30    31 ar
    61    30    35 ar
    62    31    32 ar
    63    31    65 1
    64    32    33 ar
    65    32    66 1
    66    33    34 ar
    67    33    67 1
    68    34    35 ar
    69    34    68 1
    70    35    69 1
    71    70    25 1
@<TRIPOS>SUBSTRUCTURE
     1 INH         1 TEMP              0 ****  ****    0 ROOT
