@<TRIPOS>MOLECULE
INI
   35    35     1     0     0
SMALL
bcc


@<TRIPOS>ATOM
      1 N1          0.0700    0.2390    0.0420 n         1 INI     -0.496100
      2 C2          1.4760    0.4200    0.0350 c         1 INI      0.822500
      3 O2          2.0340    0.6770   -1.0510 o         1 INI     -0.624500
      4 N3          2.1620    0.2940    1.2350 n         1 INI     -0.584500
      5 C4          1.5240    0.0000    2.4590 c         1 INI      0.750700
      6 O4          2.2490   -0.1680    3.4490 o         1 INI     -0.567500
      7 C5          0.0570   -0.0920    2.4350 cc        1 INI     -0.474300
      8 N5         -0.5930   -0.2670    3.7290 no        1 INI      0.342100
      9 O51         0.0110   -0.0040    4.7310 o         1 INI     -0.223000
     10 O52        -1.7360   -0.6710    3.7850 o         1 INI     -0.223000
     11 C6         -0.6610   -0.0040    1.2060 cd        1 INI      0.437600
     12 N7         -2.0230   -0.1020    1.1270 nh        1 INI     -0.745000
     13 C8         -2.7600   -0.0040   -0.1100 c3        1 INI      0.197800
     14 C9         -4.2860   -0.0540    0.1160 c3        1 INI      0.158100
     15 O9         -4.5670   -1.3010    0.7250 oh        1 INI     -0.604800
     16 C10        -5.0220    0.0330   -1.2390 c3        1 INI      0.107100
     17 O10        -4.2850    0.9190   -2.0670 oh        1 INI     -0.599800
     18 C11        -6.4550    0.5670   -1.0500 c3        1 INI      0.108100
     19 O11        -6.9790   -0.0320    0.1230 oh        1 INI     -0.617800
     20 C12        -7.3250    0.2160   -2.2630 c3        1 INI      0.090400
     21 O12        -8.6090    0.7490   -1.9830 oh        1 INI     -0.606800
     22 HN1        -0.3800    0.3240   -0.8460 hn        1 INI      0.359500
     23 HN3         3.1560    0.3920    1.2150 hn        1 INI      0.363500
     24 HN7        -2.5280   -0.4610    1.9200 hn        1 INI      0.507800
     25 H81        -2.5300    0.9770   -0.6190 h1        1 INI      0.070200
     26 H82        -2.4810   -0.8520   -0.8000 h1        1 INI      0.070200
     27 H9         -4.6190    0.7930    0.7770 h1        1 INI      0.068700
     28 HO9        -5.4900   -1.2820    1.0160 ho        1 INI      0.440000
     29 H10        -5.0540   -0.9930   -1.7020 h1        1 INI      0.062700
     30 HO1        -4.7510    0.9730   -2.9110 ho        1 INI      0.412000
     31 H11        -6.4280    1.6860   -0.9180 h1        1 INI      0.068700
     32 HO2        -7.9110    0.2220    0.1740 ho        1 INI      0.439000
     33 H121       -6.9070    0.6830   -3.1920 h1        1 INI      0.036700
     34 H122       -7.3850   -0.8970   -2.3930 h1        1 INI      0.036700
     35 HO3        -9.1950    0.4600   -2.6920 ho        1 INI      0.417000
@<TRIPOS>BOND
     1    1    2 1   
     2    1   11 1   
     3    1   22 1   
     4    2    3 2   
     5    2    4 1   
     6    4    5 1   
     7    4   23 1   
     8    5    6 2   
     9    5    7 1   
    10    7    8 1   
    11    7   11 2   
    12    8    9 1   
    13    8   10 1   
    14   11   12 1   
    15   12   13 1   
    16   12   24 1   
    17   13   14 1   
    18   13   25 1   
    19   13   26 1   
    20   14   15 1   
    21   14   16 1   
    22   14   27 1   
    23   15   28 1   
    24   16   17 1   
    25   16   18 1   
    26   16   29 1   
    27   17   30 1   
    28   18   19 1   
    29   18   20 1   
    30   18   31 1   
    31   19   32 1   
    32   20   21 1   
    33   20   33 1   
    34   20   34 1   
    35   21   35 1   
@<TRIPOS>SUBSTRUCTURE
     1 INI         1 TEMP              0 ****  ****    0 ROOT
