@<TRIPOS>MOLECULE
INJ
   51    51     1     0     0
SMALL
bcc


@<TRIPOS>ATOM
      1 N1           0.0000     0.0000     0.0000 nb         1 INJ      -0.745000
      2 C2           1.3220     0.0000     0.0000 ca         1 INJ       0.868300
      3 O2           1.9820     0.0000    -1.1830 oh         1 INJ      -0.605300
      4 N3           2.0190     0.0000     1.1240 nb         1 INJ      -0.812000
      5 C4           1.4070     0.0010     2.3040 ca         1 INJ       0.704600
      6 O4           2.1290     0.0010     3.4510 oh         1 INJ      -0.569300
      7 C5           0.0180     0.0070     2.3470 ca         1 INJ      -0.423900
      8 C6          -0.6810     0.0010     1.1430 ca         1 INJ       0.585200
      9 N7          -2.0670     0.0020     1.1360 nu         1 INJ      -0.486900
     10 C8          -2.7930     0.0010    -0.1360 c3         1 INJ       0.136800
     11 C9          -4.2980     0.0020     0.1340 c3         1 INJ       0.162100
     12 O9          -4.6470    -1.1640     0.8810 oh         1 INJ      -0.572800
     13 C10         -5.0550     0.0030    -1.1940 c3         1 INJ       0.174100
     14 O10         -4.7060     1.1690    -1.9410 oh         1 INJ      -0.576800
     15 C11         -6.5610     0.0040    -0.9240 c3         1 INJ       0.168100
     16 O11         -6.9110    -1.1630    -0.1760 oh         1 INJ      -0.565800
     17 C12         -7.3190     0.0040    -2.2520 c3         1 INJ       0.190400
     18 O12         -8.7260     0.0040    -1.9990 oh         1 INJ      -0.591800
     19 C13         -0.7140     0.0060     3.6640 c3         1 INJ       0.049900
     20 C14         -0.9550     1.4490     4.1130 c3         1 INJ      -0.035400
     21 C15         -1.6980     1.4490     5.4510 c3         1 INJ      -0.048400
     22 C16         -1.9380     2.8910     5.8990 c3         1 INJ       0.013600
     23 C17         -2.6820     2.8910     7.2370 c3         1 INJ      -0.051600
     24 P           -2.9690     4.6090     7.7730 p5         1 INJ       0.432700
     25 O1P         -3.7830     5.3130     6.7570 o          1 INJ      -0.753167
     26 O2P         -3.7510     4.6100     9.1800 o          1 INJ      -0.753167
     27 O3P         -1.5570     5.3620     7.9430 o          1 INJ      -0.753167
     28 HO2          2.4740    -0.8000    -1.2680 ho         1 INJ       0.402000
     29 HO4          2.9880    -0.3480     3.2820 ho         1 INJ       0.402000
     30 HN7         -2.5720    -0.0110     2.0000 hn         1 INJ       0.318800
     31 H81         -2.5280    -0.8840    -0.7030 h1         1 INJ       0.030700
     32 H82         -2.5280     0.8850    -0.7040 h1         1 INJ       0.030700
     33 H91         -4.5620     0.8860     0.7010 h1         1 INJ       0.028700
     34 HO9         -4.8120    -0.9250     1.7780 ho         1 INJ       0.398000
     35 H101        -4.7910    -0.8820    -1.7610 h1         1 INJ       0.015700
     36 HO1O        -4.3170     0.9120    -2.7610 ho         1 INJ       0.390000
     37 H111        -6.8260     0.8880    -0.3570 h1         1 INJ       0.024700
     38 HO11        -7.6400    -0.9680     0.3890 ho         1 INJ       0.395000
     39 H121        -7.0540    -0.8810    -2.8180 h1         1 INJ      -0.006800
     40 H122        -7.0540     0.8880    -2.8190 h1         1 INJ      -0.006800
     41 HO12        -9.1890     0.1840    -2.8000 ho         1 INJ       0.384000
     42 H131        -0.1170    -0.5090     4.4080 hc         1 INJ       0.012200
     43 H132        -1.6640    -0.5000     3.5500 hc         1 INJ       0.012200
     44 H141        -0.0040     1.9550     4.2290 hc         1 INJ       0.016700
     45 H142        -1.5500     1.9640     3.3690 hc         1 INJ       0.016700
     46 H151        -2.6490     0.9430     5.3350 hc         1 INJ      -0.006800
     47 H152        -1.1030     0.9330     6.1950 hc         1 INJ      -0.006800
     48 H161        -2.5340     3.4070     5.1550 hc         1 INJ       0.019200
     49 H162        -0.9870     3.3970     6.0150 hc         1 INJ       0.019200
     50 H171        -2.0870     2.3750     7.9810 hc         1 INJ      -0.013300
     51 H172        -3.6330     2.3850     7.1220 hc         1 INJ      -0.013300
@<TRIPOS>BOND
     1     1     2 ar  
     2     1     8 ar  
     3     2     3 1   
     4     2     4 ar  
     5     3    28 1   
     6     4     5 ar  
     7     5     6 1   
     8     5     7 ar  
     9     6    29 1   
    10     7     8 ar  
    11     7    19 1   
    12     8     9 1   
    13     9    10 1   
    14     9    30 1   
    15    10    11 1   
    16    10    31 1   
    17    10    32 1   
    18    11    12 1   
    19    11    13 1   
    20    11    33 1   
    21    12    34 1   
    22    13    14 1   
    23    13    15 1   
    24    13    35 1   
    25    14    36 1   
    26    15    16 1   
    27    15    17 1   
    28    15    37 1   
    29    16    38 1   
    30    17    18 1   
    31    17    39 1   
    32    17    40 1   
    33    18    41 1   
    34    19    20 1   
    35    19    42 1   
    36    19    43 1   
    37    20    21 1   
    38    20    44 1   
    39    20    45 1   
    40    21    22 1   
    41    21    46 1   
    42    21    47 1   
    43    22    23 1   
    44    22    48 1   
    45    22    49 1   
    46    23    24 1   
    47    23    50 1   
    48    23    51 1   
    49    24    25 1   
    50    24    26 1   
    51    24    27 1   
@<TRIPOS>SUBSTRUCTURE
     1 INJ         1 TEMP              0 ****  ****    0 ROOT
