@<TRIPOS>MOLECULE
molecule
   32    32     1     0     0
SMALL
bcc


@<TRIPOS>ATOM
      1 P            0.0000     0.0000     0.0000 p5         1 INK       1.047200
      2 Cl           2.0800     0.0000     0.0000 cl         1 INK      -0.232300
      3 C1          -0.6070     0.0000     1.7190 c3         1 INK      -0.224300
      4 O1          -0.4940    -1.2090    -0.6970 o          1 INK      -0.675300
      5 O2          -0.5360     1.3130    -0.7590 os         1 INK      -0.466200
      6 C2          -0.0300     1.2550    -2.0930 c3         1 INK       0.136100
      7 C3           0.8430     2.4830    -2.3620 c3         1 INK      -0.097400
      8 C4           2.0100     2.5040    -1.3730 c3         1 INK      -0.108100
      9 C5          -1.1970     1.2330    -3.0810 c3         1 INK       0.111400
     10 O3          -2.0120     0.0880    -2.8310 os         1 INK      -0.273900
     11 C6          -4.1330     1.1870    -5.5750 ca         1 INK      -0.093500
     12 C7          -5.0910     0.1920    -5.5740 ca         1 INK      -0.164000
     13 C8          -5.0210    -0.8380    -4.6540 ca         1 INK      -0.093500
     14 C9          -3.9900    -0.8750    -3.7350 ca         1 INK      -0.190000
     15 C10         -3.0270     0.1220    -3.7350 ca         1 INK       0.121100
     16 C11         -3.1030     1.1580    -4.6530 ca         1 INK      -0.190000
     17 HC11        -0.3430     0.9370     2.1950 hc         1 INK       0.091033
     18 HC12        -1.6840    -0.1160     1.7220 hc         1 INK       0.091033
     19 HC13        -0.1540    -0.8210     2.2620 hc         1 INK       0.091033
     20 HC2          0.5630     0.3570    -2.2160 h1         1 INK       0.068700
     21 HC31         1.2280     2.4380    -3.3740 hc         1 INK       0.060200
     22 HC32         0.2500     3.3810    -2.2410 hc         1 INK       0.060200
     23 HC41         1.6260     2.5220    -0.3600 hc         1 INK       0.046367
     24 HC42         2.6140     3.3880    -1.5450 hc         1 INK       0.046367
     25 HC43         2.6190     1.6190    -1.5130 hc         1 INK       0.046367
     26 HC51        -0.8120     1.1880    -4.0930 h1         1 INK       0.056700
     27 HC52        -1.7900     2.1320    -2.9600 h1         1 INK       0.056700
     28 HC7         -5.8990     0.2190    -6.2950 ha         1 INK       0.129000
     29 HC8         -5.7740    -1.6170    -4.6550 ha         1 INK       0.131500
     30 HC9         -3.9350    -1.6830    -3.0150 ha         1 INK       0.143000
     31 H11         -2.3520     1.9380    -4.6540 ha         1 INK       0.143000
     32 HC6         -4.1920     1.9950    -6.2940 ha         1 INK       0.131500
@<TRIPOS>BOND
     1     1     2 1
     2     1     3 1
     3     1     4 2
     4     1     5 1
     5     3    17 1
     6     3    18 1
     7     3    19 1
     8     5     6 1
     9     6     7 1
    10     6     9 1
    11     6    20 1
    12     7     8 1
    13     7    21 1
    14     7    22 1
    15     8    23 1
    16     8    24 1
    17     8    25 1
    18     9    10 1
    19     9    26 1
    20     9    27 1
    21    10    15 1
    22    11    12 ar
    23    11    16 ar
    24    11    32 1
    25    12    13 ar
    26    12    28 1
    27    13    14 ar
    28    13    29 1
    29    14    15 ar
    30    14    30 1
    31    15    16 ar
    32    16    31 1
@<TRIPOS>SUBSTRUCTURE
     1 INK         1 TEMP              0 ****  ****    0 ROOT
