@<TRIPOS>MOLECULE
INK
   32    32     1     0     0
SMALL
bcc


@<TRIPOS>ATOM
      1 P           0.0110    0.2840    0.3160 p5        1 INK      1.356200
      2 CL          0.6310    1.1280    1.9840 cl        1 INK     -0.237300
      3 C1         -1.5260   -0.1530    0.6480 c3        1 INK     -0.437300
      4 O1          0.9170   -0.7310   -0.2060 o         1 INK     -0.775300
      5 O2         -0.1060    1.5330   -0.7040 os        1 INK     -0.572200
      6 C2          0.2330    1.3260   -2.0630 c3        1 INK      0.178100
      7 C3          1.3030    2.3360   -2.4770 c3        1 INK     -0.088400
      8 C4          2.6490    2.0360   -1.8710 c3        1 INK     -0.101100
      9 C5         -1.0290    1.5670   -2.9090 c3        1 INK      0.106400
     10 O3         -1.8280    0.3850   -2.7820 os        1 INK     -0.353900
     11 C6         -4.6260    1.2400   -5.0590 ca        1 INK     -0.096500
     12 C7         -5.2850    0.0130   -5.0720 ca        1 INK     -0.160000
     13 C8         -4.7760   -1.0590   -4.3350 ca        1 INK     -0.096500
     14 C9         -3.6150   -0.9130   -3.5850 ca        1 INK     -0.178000
     15 C10        -2.9590    0.3330   -3.5770 ca        1 INK      0.122100
     16 C11        -3.4600    1.4130   -4.3130 ca        1 INK     -0.178000
     17 HC11       -1.5930   -1.1210    1.2040 hc        1 INK      0.123367
     18 HC12       -2.1130   -0.3010   -0.3000 hc        1 INK      0.123367
     19 HC13       -2.1100    0.5910    1.2450 hc        1 INK      0.123367
     20 HC2         0.6050    0.2690   -2.2020 h1        1 INK      0.095700
     21 HC31        0.9690    3.3620   -2.1750 hc        1 INK      0.053200
     22 HC32        1.3860    2.3120   -3.5960 hc        1 INK      0.053200
     23 HC41        2.6630    2.2960   -0.7850 hc        1 INK      0.044367
     24 HC42        2.9050    0.9530   -1.9780 hc        1 INK      0.044367
     25 HC43        3.4380    2.6400   -2.3810 hc        1 INK      0.044367
     26 HC51       -1.5990    2.4490   -2.5180 h1        1 INK      0.057700
     27 HC52       -0.7520    1.7220   -3.9840 h1        1 INK      0.057700
     28 HC7        -6.2030   -0.1140   -5.6630 ha        1 INK      0.135000
     29 HC8        -5.2960   -2.0290   -4.3470 ha        1 INK      0.135000
     30 HC9        -3.2000   -1.7480   -3.0050 ha        1 INK      0.142500
     31 H11        -2.9530    2.3870   -4.3100 ha        1 INK      0.142500
     32 HC6        -5.0250    2.0850   -5.6400 ha        1 INK      0.135000
@<TRIPOS>BOND
     1    1    2 1   
     2    1    3 1   
     3    1    4 2   
     4    1    5 1   
     5    3   17 1   
     6    3   18 1   
     7    3   19 1   
     8    5    6 1   
     9    6    7 1   
    10    6    9 1   
    11    6   20 1   
    12    7    8 1   
    13    7   21 1   
    14    7   22 1   
    15    8   23 1   
    16    8   24 1   
    17    8   25 1   
    18    9   10 1   
    19    9   26 1   
    20    9   27 1   
    21   10   15 1   
    22   11   12 ar  
    23   11   16 ar  
    24   11   32 1   
    25   12   13 ar  
    26   12   28 1   
    27   13   14 ar  
    28   13   29 1   
    29   14   15 ar  
    30   14   30 1   
    31   15   16 ar  
    32   16   31 1   
@<TRIPOS>SUBSTRUCTURE
     1 INK         1 TEMP              0 ****  ****    0 ROOT
