@<TRIPOS>MOLECULE
INL
   52    55     1     0     0
SMALL
bcc


@<TRIPOS>ATOM
      1 S1           0.0000     0.0000     0.0000 sy         1 INL       0.991200
      2 O2           1.4200     0.0000     0.0000 o          1 INL      -0.484300
      3 O3          -0.8230     0.0000     1.1590 o          1 INL      -0.484300
      4 N4          -0.4510    -1.3350    -0.8700 nz         1 INL      -0.129500
      5 C5          -0.4800     1.4190    -0.9290 cc         1 INL      -0.148600
      6 C6          -1.6480     2.1020    -0.8910 cd         1 INL       0.049000
      7 C7          -1.8380     3.2110    -1.7220 cd         1 INL       0.008200
      8 C8          -0.7640     3.5350    -2.5280 cc         1 INL       0.026400
      9 S9           0.4520     2.3230    -2.1580 ss         1 INL      -0.057800
     10 C10         -3.0570     4.0650    -1.8020 cf         1 INL      -0.235200
     11 C11         -3.2490     4.9560    -2.7600 c2         1 INL       0.115800
     12 N12         -2.4040     5.2010    -3.8350 nh         1 INL      -0.139700
     13 S13         -0.7700     4.8940    -3.6290 sy         1 INL       1.071200
     14 O14         -0.2920     4.4050    -4.8740 o          1 INL      -0.531800
     15 O15         -0.2440     5.9980    -2.9070 o          1 INL      -0.531800
     16 C16         -4.5030     5.7860    -2.6760 c3         1 INL       0.166000
     17 C17         -6.6270     6.2150    -3.6030 c3         1 INL       0.094800
     18 C18         -7.6660     5.7800    -4.6390 c3         1 INL       0.202400
     19 O19         -7.9970     4.4060    -4.4400 os         1 INL      -0.387600
     20 C20         -6.8090     3.6490    -4.6680 c3         1 INL       0.202400
     21 C21         -5.7480     4.0300    -3.6340 c3         1 INL       0.094800
     22 N22         -5.3920     5.4450    -3.7960 n3         1 INL      -0.511600
     23 C23         -2.9820     7.0490    -5.2740 ca         1 INL      -0.130000
     24 C24         -2.8990     5.6820    -5.0480 ca         1 INL       0.064600
     25 C25         -3.3080     4.7920    -6.0350 ca         1 INL      -0.111000
     26 C26         -3.7990     5.2680    -7.2350 ca         1 INL      -0.043000
     27 C27         -3.8880     6.6280    -7.4580 ca         1 INL      -0.197000
     28 C28         -3.4820     7.5220    -6.4770 ca         1 INL       0.151100
     29 O29         -3.5700     8.8600    -6.6980 os         1 INL      -0.277900
     30 C30         -4.1080     9.0280    -8.0100 c3         1 INL       0.217700
     31 HN41        -1.4400    -1.3180    -1.0180 hn         1 INL       0.315467
     32 HN42         0.0190    -1.3310    -1.7540 hn         1 INL       0.315467
     33 H61         -2.4360     1.7900    -0.2160 ha         1 INL       0.126000
     34 H101        -3.8190     3.9520    -1.0410 ha         1 INL       0.140000
     35 H161        -4.2450     6.8370    -2.7260 h1         1 INL       0.037200
     36 H162        -5.0090     5.5830    -1.7390 h1         1 INL       0.037200
     37 H181        -7.2580     5.9110    -5.6330 h1         1 INL       0.018450
     38 H182        -8.5580     6.3850    -4.5270 h1         1 INL       0.018450
     39 H201        -7.0330     2.5930    -4.5790 h1         1 INL       0.018450
     40 H202        -6.4330     3.8610    -5.6610 h1         1 INL       0.018450
     41 H211        -6.1430     3.8700    -2.6380 h1         1 INL       0.021700
     42 H212        -4.8660     3.4180    -3.7810 h1         1 INL       0.021700
     43 H231        -2.6650     7.7460    -4.5070 ha         1 INL       0.128000
     44 H251        -3.2400     3.7240    -5.8620 ha         1 INL       0.103000
     45 H261        -4.1170     4.5720    -8.0030 ha         1 INL       0.107000
     46 H271        -4.2760     6.9980    -8.3990 ha         1 INL       0.140000
     47 H301        -4.1940    10.0850    -8.2330 h1         1 INL       0.006700
     48 H302        -5.0870     8.5670    -8.0610 h1         1 INL       0.006700
     49 H303        -3.4510     8.5590    -8.7330 h1         1 INL       0.006700
     50 H171        -6.4170     7.2700    -3.7270 h1         1 INL       0.021700
     51 H43         -0.2070    -2.1620    -0.3620 hn         1 INL       0.315467
     52 H172        -7.0140     6.0320    -2.6080 h1         1 INL       0.021700
@<TRIPOS>BOND
     1     1     2 2   
     2     1     3 2   
     3     1     4 1   
     4     1     5 1   
     5     4    31 1   
     6     4    32 1   
     7     4    51 1   
     8     5     6 2   
     9     5     9 1   
    10     6     7 1   
    11     6    33 1   
    12     7     8 2   
    13     7    10 1   
    14     8     9 1   
    15     8    13 1   
    16    10    11 2   
    17    10    34 1   
    18    11    12 1   
    19    11    16 1   
    20    12    13 1   
    21    12    24 1   
    22    13    14 2   
    23    13    15 2   
    24    16    22 1   
    25    16    35 1   
    26    16    36 1   
    27    17    18 1   
    28    17    22 1   
    29    17    50 1   
    30    17    52 1   
    31    18    19 1   
    32    18    37 1   
    33    18    38 1   
    34    19    20 1   
    35    20    21 1   
    36    20    39 1   
    37    20    40 1   
    38    21    22 1   
    39    21    41 1   
    40    21    42 1   
    41    23    24 ar  
    42    23    28 ar  
    43    23    43 1   
    44    24    25 ar  
    45    25    26 ar  
    46    25    44 1   
    47    26    27 ar  
    48    26    45 1   
    49    27    28 ar  
    50    27    46 1   
    51    28    29 1   
    52    29    30 1   
    53    30    47 1   
    54    30    48 1   
    55    30    49 1   
@<TRIPOS>SUBSTRUCTURE
     1 INL         1 TEMP              0 ****  ****    0 ROOT
