@<TRIPOS>MOLECULE
INO
   15    15     1     0     0
SMALL
bcc


@<TRIPOS>ATOM
      1 N1          0.0430   -0.1510   -0.0660 na        1 INO      0.151600
      2 C2          1.4380   -0.1320    0.0390 ca        1 INO      0.027800
      3 C3          2.0970   -0.0700    1.2780 ca        1 INO     -0.097000
      4 C4          1.3440   -0.0240    2.4500 ca        1 INO     -0.115600
      5 C5         -0.0510   -0.0430    2.3540 ca        1 INO     -0.119000
      6 C6         -0.6800   -0.1050    1.1100 ca        1 INO     -0.183300
      7 C7          2.0260    0.0440    3.8150 c         1 INO      0.914200
      8 O1          3.2860    0.0570    3.8380 o         1 INO     -0.816800
      9 O2          1.2790    0.0830    4.8310 o         1 INO     -0.816800
     10 O3          2.1940   -0.1760   -1.1130 oh        1 INO     -0.503100
     11 O4         -0.4880   -0.2070   -1.1890 o         1 INO     -0.408000
     12 H3          3.1970   -0.0570    1.3190 ha        1 INO      0.185000
     13 H5         -0.6500   -0.0070    3.2780 ha        1 INO      0.175000
     14 H6         -1.7740   -0.1220    0.9870 h4        1 INO      0.163000
     15 HO3         1.5910   -0.2170   -1.8790 ho        1 INO      0.444000
@<TRIPOS>BOND
     1    1    2 1   
     2    1    6 2   
     3    1   11 1   
     4    2    3 ar  
     5    2   10 1   
     6    3    4 ar  
     7    3   12 1   
     8    4    5 ar  
     9    4    7 1   
    10    5    6 ar  
    11    5   13 1   
    12    6   14 1   
    13    7    8 1   
    14    7    9 1   
    15   10   15 1   
@<TRIPOS>SUBSTRUCTURE
     1 INO         1 TEMP              0 ****  ****    0 ROOT
