@<TRIPOS>MOLECULE
molecule
   15    15     1     0     0
SMALL
bcc


@<TRIPOS>ATOM
      1 N1           0.0000     0.0000     0.0000 na         1 INO       0.091600
      2 C2           1.3230     0.0000     0.0000 ca         1 INO       0.094800
      3 C3           2.0320     0.0000     1.1920 ca         1 INO      -0.145000
      4 C4           1.3260    -0.0110     2.3990 ca         1 INO      -0.073600
      5 C5          -0.0730    -0.0110     2.3480 ca         1 INO      -0.124000
      6 C6          -0.7000    -0.0050     1.1200 ca         1 INO      -0.117300
      7 C7           2.0390    -0.0170     3.6950 c          1 INO       0.880200
      8 O1           3.2540    -0.0160     3.7200 o          1 INO      -0.818800
      9 O2           1.3420    -0.0210     4.8470 o          1 INO      -0.818800
     10 O3           1.9940     0.0050    -1.1800 oh         1 INO      -0.487100
     11 O4          -0.6870     0.0060    -1.2390 o          1 INO      -0.427000
     12 H3           3.1150     0.0000     1.1880 ha         1 INO       0.177000
     13 H5          -0.6550    -0.0170     3.2620 ha         1 INO       0.179000
     14 H6          -1.7820    -0.0050     1.0730 h4         1 INO       0.170000
     15 HO3          2.3300    -0.8580    -1.3550 ho         1 INO       0.419000
@<TRIPOS>BOND
     1     1     2 1
     2     1     6 2
     3     1    11 1
     4     2     3 ar
     5     2    10 1
     6     3     4 ar
     7     3    12 1
     8     4     5 ar
     9     4     7 1
    10     5     6 ar
    11     5    13 1
    12     6    14 1
    13     7     8 1
    14     7     9 1
    15    10    15 1
@<TRIPOS>SUBSTRUCTURE
     1 INO         1 TEMP              0 ****  ****    0 ROOT
