@<TRIPOS>MOLECULE
INP
   85    87     1     0     0
SMALL
bcc


@<TRIPOS>ATOM
      1 C1           0.0000     0.0000     0.0000 ca         1 INP      -0.106500
      2 C2           1.3830     0.0000     0.0000 ca         1 INP      -0.073000
      3 C3           2.0740     0.0000     1.1970 ca         1 INP      -0.124300
      4 C4           1.3810    -0.0050     2.3940 ca         1 INP      -0.073000
      5 C5          -0.0010    -0.0010     2.3950 ca         1 INP      -0.106500
      6 C6          -0.6910     0.0000     1.1970 ca         1 INP      -0.089000
      7 C7           3.5800     0.0000     1.1970 c3         1 INP       0.311700
      8 O8           4.0640     1.3690     1.1970 os         1 INP      -0.430900
      9 C9           5.3880     1.6140     1.1980 c          1 INP       0.688100
     10 O10          6.1770     0.6900     1.1980 o          1 INP      -0.651000
     11 N11          5.8380     2.8840     1.1970 ns         1 INP      -0.185900
     12 C12          7.2720     3.1540     1.0710 c3         1 INP       0.010700
     13 C13          7.6910     4.1870     2.1170 c3         1 INP       0.129800
     14 N14          7.4080     3.6650     3.4610 n3         1 INP      -0.500600
     15 C15          7.8360     4.7120     4.4260 c3         1 INP       0.133800
     16 C16          5.9300     3.6360     3.6050 c3         1 INP      -0.001200
     17 C17          5.6790     3.8050     5.0950 c          1 INP       0.602100
     18 C18          6.9080     4.5090     5.6420 c3         1 INP      -0.098300
     19 C19          7.5670     3.6970    -0.3280 c3         1 INP      -0.043400
     20 C20          7.2240     2.6310    -1.3720 c3         1 INP      -0.054700
     21 C21          7.3920     3.2190    -2.7750 c3         1 INP      -0.006100
     22 C22          8.1610     1.4350    -1.2060 c3         1 INP      -0.006100
     23 N23          6.5380     5.8020     6.2200 ns         1 INP      -0.179900
     24 C24          6.2800     5.9010     7.5390 c          1 INP       0.566100
     25 O25          6.3530     4.9190     8.2460 o          1 INP      -0.626100
     26 C26          5.9000     7.2320     8.1340 c3         1 INP      -0.063300
     27 C27          7.0310     8.2360     7.9040 c3         1 INP      -0.039400
     28 C28          6.6100     9.6080     8.4310 c3         1 INP      -0.055700
     29 C29          7.7950    10.5740     8.3440 c3         1 INP      -0.001600
     30 C30          5.4530    10.1450     7.5870 c3         1 INP      -0.001600
     31 N31          5.6710     7.0760     9.5740 ns         1 INP      -0.132900
     32 C32          4.5780     7.6190    10.1450 c          1 INP       0.688100
     33 O33          3.7690     8.2140     9.4630 o          1 INP      -0.672000
     34 O34          4.3850     7.5020    11.4720 os         1 INP      -0.424900
     35 C35          3.2080     8.0870    12.0880 c3         1 INP       0.308700
     36 C36          3.2300     7.8170    13.5700 ca         1 INP      -0.087300
     37 C37          3.8360     8.7060    14.4450 ca         1 INP      -0.196300
     38 C38          3.8360     8.4240    15.7990 ca         1 INP       0.399700
     39 N39          3.2680     7.3280    16.2590 nb         1 INP      -0.575000
     40 C40          2.6820     6.4600    15.4570 ca         1 INP       0.399700
     41 C41          2.6370     6.6780    14.0930 ca         1 INP      -0.196300
     42 O42          4.7050     3.4520     5.7140 o          1 INP      -0.494100
     43 H1          -0.5420     0.0000    -0.9380 ha         1 INP       0.105000
     44 H2           1.9240     0.0020    -0.9380 ha         1 INP       0.107500
     45 H4           1.9230    -0.0050     3.3320 ha         1 INP       0.107500
     46 H5          -0.5420    -0.0030     3.3330 ha         1 INP       0.105000
     47 H6          -1.7750     0.0010     1.1970 ha         1 INP       0.102000
     48 H71          3.9410    -0.5100     2.0820 h1         1 INP       0.013700
     49 H72          3.9410    -0.5110     0.3130 h1         1 INP       0.013700
     50 HN1          5.1870     3.6440     1.2240 hn         1 INP       0.180500
     51 H12          7.8270     2.2370     1.2270 h1         1 INP       0.095700
     52 H131         7.1360     5.1040     1.9620 h1         1 INP       0.019700
     53 H132         8.7520     4.3860     2.0230 h1         1 INP       0.019700
     54 H151         7.6920     5.6980     4.0010 h1         1 INP       0.024700
     55 H152         8.8710     4.5620     4.7110 h1         1 INP       0.024700
     56 H161         5.4830     4.4540     3.0540 h1         1 INP       0.052700
     57 H162         5.5390     2.6850     3.2640 h1         1 INP       0.052700
     58 H18          7.3960     3.8860     6.3820 h1         1 INP       0.092700
     59 H191         6.9680     4.5820    -0.5060 hc         1 INP       0.021700
     60 H192         8.6170     3.9510    -0.4030 hc         1 INP       0.021700
     61 H20          6.1990     2.3090    -1.2360 hc         1 INP       0.027700
     62 H211         7.1220     2.4740    -3.5140 hc         1 INP       0.009367
     63 H212         8.4240     3.5160    -2.9210 hc         1 INP       0.009367
     64 H213         6.7490     4.0850    -2.8830 hc         1 INP       0.009367
     65 H221         9.0760     1.7570    -0.7240 hc         1 INP       0.009367
     66 H222         8.3930     1.0200    -2.1790 hc         1 INP       0.009367
     67 H223         7.6780     0.6800    -0.5970 hc         1 INP       0.009367
     68 HN2          6.4470     6.6050     5.6310 hn         1 INP       0.177500
     69 H26          4.9950     7.5930     7.6620 h1         1 INP       0.092700
     70 H271         7.2420     8.3050     6.8430 hc         1 INP       0.022200
     71 H272         7.9200     7.9050     8.4280 hc         1 INP       0.022200
     72 H28          6.2930     9.5170     9.4630 hc         1 INP       0.034700
     73 H291         8.1680    10.5980     7.3280 hc         1 INP       0.008033
     74 H292         8.5820    10.2400     9.0100 hc         1 INP       0.008033
     75 H293         7.4740    11.5670     8.6350 hc         1 INP       0.008033
     76 H301         4.6690     9.3990     7.5320 hc         1 INP       0.008033
     77 H302         5.0610    11.0470     8.0420 hc         1 INP       0.008033
     78 H303         5.8080    10.3700     6.5880 hc         1 INP       0.008033
     79 HN3          6.3180     6.5520    10.1290 hn         1 INP       0.192500
     80 H351         3.2040     9.1560    11.9150 h1         1 INP       0.014700
     81 H352         2.3180     7.6480    11.6540 h1         1 INP       0.014700
     82 H37          4.3040     9.6090    14.0720 ha         1 INP       0.116500
     83 H38          4.3070     9.1140    16.4890 h4         1 INP      -0.019400
     84 H40          2.2240     5.5710    15.8730 h4         1 INP      -0.019400
     85 H41          2.1550     5.9610    13.4390 ha         1 INP       0.116500
@<TRIPOS>BOND
     1     1     2 ar  
     2     1     6 ar  
     3     1    43 1   
     4     2     3 ar  
     5     2    44 1   
     6     3     4 ar  
     7     3     7 1   
     8     4     5 ar  
     9     4    45 1   
    10     5     6 ar  
    11     5    46 1   
    12     6    47 1   
    13     7     8 1   
    14     7    48 1   
    15     7    49 1   
    16     8     9 1   
    17     9    10 2   
    18     9    11 1   
    19    11    12 1   
    20    11    50 1   
    21    12    13 1   
    22    12    19 1   
    23    12    51 1   
    24    13    14 1   
    25    13    52 1   
    26    13    53 1   
    27    14    15 1   
    28    14    16 1   
    29    15    18 1   
    30    15    54 1   
    31    15    55 1   
    32    16    17 1   
    33    16    56 1   
    34    16    57 1   
    35    17    18 1   
    36    17    42 2   
    37    18    23 1   
    38    18    58 1   
    39    19    20 1   
    40    19    59 1   
    41    19    60 1   
    42    20    21 1   
    43    20    22 1   
    44    20    61 1   
    45    21    62 1   
    46    21    63 1   
    47    21    64 1   
    48    22    65 1   
    49    22    66 1   
    50    22    67 1   
    51    23    24 1   
    52    23    68 1   
    53    24    25 2   
    54    24    26 1   
    55    26    27 1   
    56    26    31 1   
    57    26    69 1   
    58    27    28 1   
    59    27    70 1   
    60    27    71 1   
    61    28    29 1   
    62    28    30 1   
    63    28    72 1   
    64    29    73 1   
    65    29    74 1   
    66    29    75 1   
    67    30    76 1   
    68    30    77 1   
    69    30    78 1   
    70    31    32 1   
    71    31    79 1   
    72    32    33 2   
    73    32    34 1   
    74    34    35 1   
    75    35    36 1   
    76    35    80 1   
    77    35    81 1   
    78    36    37 ar  
    79    36    41 ar  
    80    37    38 ar  
    81    37    82 1   
    82    38    39 ar  
    83    38    83 1   
    84    39    40 ar  
    85    40    41 ar  
    86    40    84 1   
    87    41    85 1   
@<TRIPOS>SUBSTRUCTURE
     1 INP         1 TEMP              0 ****  ****    0 ROOT
