@<TRIPOS>MOLECULE
molecule
   49    52     1     0     0
SMALL
bcc


@<TRIPOS>ATOM
      1 S01          0.0000     0.0000     0.0000 sy         1 INQ       1.290200
      2 O02          1.4200     0.0000     0.0000 o          1 INQ      -0.509800
      3 N03         -0.4490     0.0000     1.5940 nz         1 INQ      -0.809500
      4 C04         -0.4790     1.5520    -0.6820 cc         1 INQ      -0.336600
      5 C05          0.2260     2.7070    -0.7400 cd         1 INQ      -0.003000
      6 C06         -0.3390     3.8430    -1.3320 cd         1 INQ       0.011200
      7 C07         -1.6210     3.6780    -1.8190 cc         1 INQ      -0.201600
      8 S08         -2.0230     2.0050    -1.4640 ss         1 INQ       0.141200
      9 C09          0.3010     5.1820    -1.4730 cf         1 INQ      -0.236200
     10 C10         -0.3690     6.2640    -1.8270 c2         1 INQ       0.200800
     11 N11         -1.7360     6.3430    -2.0650 nh         1 INQ      -0.508700
     12 S12         -2.5170     4.9640    -2.6050 sy         1 INQ       1.430200
     13 O13         -2.2360     4.8590    -3.9930 o          1 INQ      -0.579800
     14 O14         -3.8080     4.9730    -2.0130 o          1 INQ      -0.579800
     15 C15          0.4250     7.5340    -1.9890 c3         1 INQ       0.160000
     16 C16          0.9720     9.6790    -0.8640 c3         1 INQ       0.096800
     17 C17          0.7430    10.6190     0.3210 c3         1 INQ       0.126900
     18 O18          1.0950     9.9570     1.5350 os         1 INQ      -0.397600
     19 C19          0.2090     8.8470     1.6800 c3         1 INQ       0.126900
     20 C20          0.4250     7.8600     0.5310 c3         1 INQ       0.096800
     21 N21          0.0900     8.5110    -0.7420 n3         1 INQ      -0.666600
     22 C22         -2.9400     7.8380    -0.6040 ca         1 INQ      -0.105000
     23 C23         -2.4370     7.5350    -1.8610 ca         1 INQ       0.131600
     24 C24         -2.6350     8.4150    -2.9170 ca         1 INQ      -0.129000
     25 C25         -3.3280     9.5930    -2.7150 ca         1 INQ      -0.098000
     26 C26         -3.8230     9.9000    -1.4630 ca         1 INQ      -0.149000
     27 C27         -3.6280     9.0240    -0.4040 ca         1 INQ       0.122100
     28 O28         -4.1170     9.3270     0.8280 oh         1 INQ      -0.514100
     29 O29         -0.8220    -0.9700    -0.6330 o          1 INQ      -0.509800
     30 H031        -1.4300     0.1840     1.6650 hn         1 INQ       0.494133
     31 H032        -0.2470    -0.8930     1.9980 hn         1 INQ       0.494133
     32 H051         1.2270     2.7520    -0.3290 ha         1 INQ       0.163000
     33 H091         1.3630     5.2710    -1.2770 ha         1 INQ       0.168000
     34 H151         0.2270     7.9620    -2.9640 h1         1 INQ       0.071200
     35 H152         1.4820     7.3120    -1.8990 h1         1 INQ       0.071200
     36 H171         1.3590    11.5020     0.2020 h1         1 INQ       0.062450
     37 H172        -0.3020    10.9030     0.3560 h1         1 INQ       0.062450
     38 H191         0.4080     8.3500     2.6220 h1         1 INQ       0.062450
     39 H192        -0.8150     9.2000     1.6630 h1         1 INQ       0.062450
     40 H201         1.4620     7.5490     0.5140 h1         1 INQ       0.044700
     41 H202        -0.2140     6.9970     0.6730 h1         1 INQ       0.044700
     42 H221        -2.7870     7.1540     0.2220 ha         1 INQ       0.142000
     43 H241        -2.2480     8.1770    -3.9000 ha         1 INQ       0.145000
     44 H251        -3.4810    10.2790    -3.5400 ha         1 INQ       0.148000
     45 H261        -4.3630    10.8260    -1.3060 ha         1 INQ       0.149000
     46 H281        -5.0570     9.3880     0.7860 ho         1 INQ       0.429000
     47 H161         0.7510    10.2020    -1.7860 h1         1 INQ       0.044700
     48 H033         0.0650     0.7040     2.0850 hn         1 INQ       0.494133
     49 H162         2.0040     9.3500    -0.8670 h1         1 INQ       0.044700
@<TRIPOS>BOND
     1     1     2 2
     2     1     3 1
     3     1     4 1
     4     1    29 2
     5     3    30 1
     6     3    31 1
     7     4     5 2
     8     4     8 1
     9     5     6 1
    10     5    32 1
    11     6     7 2
    12     6     9 1
    13     7     8 1
    14     7    12 1
    15     9    10 2
    16     9    33 1
    17    10    11 1
    18    10    15 1
    19    11    12 1
    20    11    23 1
    21    12    13 2
    22    12    14 2
    23    15    21 1
    24    15    34 1
    25    15    35 1
    26    16    17 1
    27    16    21 1
    28    16    47 1
    29    16    49 1
    30    17    18 1
    31    17    36 1
    32    17    37 1
    33    18    19 1
    34    19    20 1
    35    19    38 1
    36    19    39 1
    37    20    21 1
    38    20    40 1
    39    20    41 1
    40    22    23 ar
    41    22    27 ar
    42    22    42 1
    43    23    24 ar
    44    24    25 ar
    45    24    43 1
    46    25    26 ar
    47    25    44 1
    48    26    27 ar
    49    26    45 1
    50    27    28 1
    51    28    46 1
    52    48     3 1
@<TRIPOS>SUBSTRUCTURE
     1 INQ         1 TEMP              0 ****  ****    0 ROOT
