@<TRIPOS>MOLECULE
INQ
   49    52     1     0     0
SMALL
bcc


@<TRIPOS>ATOM
      1 S01          0.0000     0.0000     0.0000 sy         1 INQ       0.993200
      2 O02          1.4200     0.0000     0.0000 o          1 INQ      -0.484800
      3 N03         -0.4490     0.0000     1.5940 nz         1 INQ      -0.129500
      4 C04         -0.4790     1.5520    -0.6820 cc         1 INQ      -0.148600
      5 C05          0.2260     2.7070    -0.7400 cd         1 INQ       0.050000
      6 C06         -0.3390     3.8430    -1.3320 cd         1 INQ       0.007200
      7 C07         -1.6210     3.6780    -1.8190 cc         1 INQ       0.028400
      8 S08         -2.0230     2.0050    -1.4640 ss         1 INQ      -0.058800
      9 C09          0.3010     5.1820    -1.4730 cf         1 INQ      -0.230200
     10 C10         -0.3690     6.2640    -1.8270 c2         1 INQ       0.112800
     11 N11         -1.7360     6.3430    -2.0650 nh         1 INQ      -0.141700
     12 S12         -2.5170     4.9640    -2.6050 sy         1 INQ       1.071200
     13 O13         -2.2360     4.8590    -3.9930 o          1 INQ      -0.533300
     14 O14         -3.8080     4.9730    -2.0130 o          1 INQ      -0.533300
     15 C15          0.4250     7.5340    -1.9890 c3         1 INQ       0.178000
     16 C16          0.9720     9.6790    -0.8640 c3         1 INQ       0.106300
     17 C17          0.7430    10.6190     0.3210 c3         1 INQ       0.201900
     18 O18          1.0950     9.9570     1.5350 os         1 INQ      -0.387600
     19 C19          0.2090     8.8470     1.6800 c3         1 INQ       0.201900
     20 C20          0.4250     7.8600     0.5310 c3         1 INQ       0.106300
     21 N21          0.0900     8.5110    -0.7420 n3         1 INQ      -0.534600
     22 C22         -2.9400     7.8380    -0.6040 ca         1 INQ      -0.097000
     23 C23         -2.4370     7.5350    -1.8610 ca         1 INQ       0.047600
     24 C24         -2.6350     8.4150    -2.9170 ca         1 INQ      -0.111000
     25 C25         -3.3280     9.5930    -2.7150 ca         1 INQ      -0.059000
     26 C26         -3.8230     9.9000    -1.4630 ca         1 INQ      -0.133000
     27 C27         -3.6280     9.0240    -0.4040 ca         1 INQ       0.145100
     28 O28         -4.1170     9.3270     0.8280 oh         1 INQ      -0.496100
     29 O29         -0.8220    -0.9700    -0.6330 o          1 INQ      -0.484800
     30 H031        -1.4300     0.1840     1.6650 hn         1 INQ       0.315133
     31 H032        -0.2470    -0.8930     1.9980 hn         1 INQ       0.315133
     32 H051         1.2270     2.7520    -0.3290 ha         1 INQ       0.126000
     33 H091         1.3630     5.2710    -1.2770 ha         1 INQ       0.140000
     34 H151         0.2270     7.9620    -2.9640 h1         1 INQ       0.036200
     35 H152         1.4820     7.3120    -1.8990 h1         1 INQ       0.036200
     36 H171         1.3590    11.5020     0.2020 h1         1 INQ       0.020950
     37 H172        -0.3020    10.9030     0.3560 h1         1 INQ       0.020950
     38 H191         0.4080     8.3500     2.6220 h1         1 INQ       0.020950
     39 H192        -0.8150     9.2000     1.6630 h1         1 INQ       0.020950
     40 H201         1.4620     7.5490     0.5140 h1         1 INQ       0.017450
     41 H202        -0.2140     6.9970     0.6730 h1         1 INQ       0.017450
     42 H221        -2.7870     7.1540     0.2220 ha         1 INQ       0.114000
     43 H241        -2.2480     8.1770    -3.9000 ha         1 INQ       0.118000
     44 H251        -3.4810    10.2790    -3.5400 ha         1 INQ       0.113000
     45 H261        -4.3630    10.8260    -1.3060 ha         1 INQ       0.119000
     46 H281        -5.0570     9.3880     0.7860 ho         1 INQ       0.412000
     47 H161         0.7510    10.2020    -1.7860 h1         1 INQ       0.017450
     48 H033         0.0650     0.7040     2.0850 hn         1 INQ       0.315133
     49 H162         2.0040     9.3500    -0.8670 h1         1 INQ       0.017450
@<TRIPOS>BOND
     1     1     2 2   
     2     1     3 1   
     3     1     4 1   
     4     1    29 2   
     5     3    30 1   
     6     3    31 1   
     7     3    48 1   
     8     4     5 2   
     9     4     8 1   
    10     5     6 1   
    11     5    32 1   
    12     6     7 2   
    13     6     9 1   
    14     7     8 1   
    15     7    12 1   
    16     9    10 2   
    17     9    33 1   
    18    10    11 1   
    19    10    15 1   
    20    11    12 1   
    21    11    23 1   
    22    12    13 2   
    23    12    14 2   
    24    15    21 1   
    25    15    34 1   
    26    15    35 1   
    27    16    17 1   
    28    16    21 1   
    29    16    47 1   
    30    16    49 1   
    31    17    18 1   
    32    17    36 1   
    33    17    37 1   
    34    18    19 1   
    35    19    20 1   
    36    19    38 1   
    37    19    39 1   
    38    20    21 1   
    39    20    40 1   
    40    20    41 1   
    41    22    23 ar  
    42    22    27 ar  
    43    22    42 1   
    44    23    24 ar  
    45    24    25 ar  
    46    24    43 1   
    47    25    26 ar  
    48    25    44 1   
    49    26    27 ar  
    50    26    45 1   
    51    27    28 1   
    52    28    46 1   
@<TRIPOS>SUBSTRUCTURE
     1 INQ         1 TEMP              0 ****  ****    0 ROOT
