@<TRIPOS>MOLECULE
molecule
   33    36     1     0     0
SMALL
bcc


@<TRIPOS>ATOM
      1 C1           0.0000     0.0000     0.0000 ca         1 INR       0.048800
      2 C2           1.4050     0.0000     0.0000 ca         1 INR      -0.257600
      3 C6          -0.7380     0.0070     1.2140 ca         1 INR      -0.196000
      4 N7          -0.4750    -0.0020    -1.2520 na         1 INR      -0.207400
      5 C3           2.1630     0.0000     1.2040 ca         1 INR      -0.008000
      6 C8           1.7450    -0.0040    -1.4610 c          1 INR       0.576900
      7 C4           1.4380     0.0050     2.4340 ca         1 INR      -0.202000
      8 C5           0.0020     0.0080     2.4390 ca         1 INR      -0.072000
      9 O10          2.8750    -0.0110    -1.9040 o          1 INR      -0.463100
     10 C9           0.4560    -0.0190    -2.1840 cc         1 INR       0.004700
     11 C11          0.1270    -0.0310    -3.5080 cd         1 INR      -0.154400
     12 C12         -1.2590    -0.0460    -4.0300 c          1 INR       0.700700
     13 C15          0.9700    -0.0710    -4.7820 ca         1 INR      -0.128800
     14 O13         -2.2650    -0.0240    -3.3210 o          1 INR      -0.698500
     15 N14         -1.2350    -0.0800    -5.3280 ns         1 INR      -0.403100
     16 C16          0.0100    -0.1010    -5.8120 ca         1 INR       0.032600
     17 C20          2.3570    -0.0860    -5.1080 ca         1 INR       0.022000
     18 C19          2.7380    -0.1370    -6.4880 ca         1 INR      -0.258500
     19 C18          1.7550    -0.1710    -7.5130 ca         1 INR       0.008000
     20 S21          4.4740    -0.1610    -6.8550 s6         1 INR       1.297100
     21 C17          0.3730    -0.1490    -7.1810 ca         1 INR      -0.209000
     22 O24          4.5420    -0.2460    -8.3360 o          1 INR      -0.700200
     23 O23          5.0610    -1.3500    -6.2780 o          1 INR      -0.700200
     24 O22          4.9960     1.1390    -6.4830 o          1 INR      -0.700200
     25 HC6         -1.8210     0.0090     1.2120 ha         1 INR       0.139000
     26 H7          -1.4540    -0.0060    -1.4610 hn         1 INR       0.332700
     27 HC3          3.2460    -0.0020     1.1890 ha         1 INR       0.151000
     28 HC4          1.9770     0.0060     3.3730 ha         1 INR       0.131000
     29 HC5         -0.5290     0.0120     3.3830 ha         1 INR       0.127000
     30 H14         -2.0550    -0.0950    -5.9010 hn         1 INR       0.334500
     31 H20          3.1080    -0.0590    -4.3280 ha         1 INR       0.166000
     32 H18          2.0600    -0.2100    -8.5520 ha         1 INR       0.166000
     33 H17         -0.3840    -0.1750    -7.9550 ha         1 INR       0.121000
@<TRIPOS>BOND
     1     1     2 ar
     2     1     3 ar
     3     1     4 1
     4     2     5 ar
     5     2     6 1
     6     3     8 ar
     7     3    25 1
     8     4    10 1
     9     4    26 1
    10     5     7 ar
    11     5    27 1
    12     6     9 2
    13     6    10 1
    14     7     8 ar
    15     7    28 1
    16     8    29 1
    17    10    11 2
    18    11    12 1
    19    11    13 1
    20    12    14 2
    21    12    15 1
    22    13    16 ar
    23    13    17 ar
    24    15    16 1
    25    15    30 1
    26    16    21 ar
    27    17    18 ar
    28    17    31 1
    29    18    19 ar
    30    18    20 1
    31    19    21 ar
    32    19    32 1
    33    20    22 1
    34    20    23 1
    35    20    24 1
    36    21    33 1
@<TRIPOS>SUBSTRUCTURE
     1 INR         1 TEMP              0 ****  ****    0 ROOT
