@<TRIPOS>MOLECULE
INS
   24    24     1     0     0
SMALL
bcc


@<TRIPOS>ATOM
      1 C1         -0.1700    0.0020    0.0710 c3        1 INS      0.109433
      2 C2          1.3470    0.2070   -0.0470 c3        1 INS      0.109433
      3 C3          2.0090    0.1760    1.3390 c3        1 INS      0.109433
      4 C4          1.6660   -1.1200    2.0910 c3        1 INS      0.109433
      5 C5          0.1440   -1.2650    2.2310 c3        1 INS      0.109433
      6 C6         -0.4970   -1.2900    0.8370 c3        1 INS      0.109433
      7 O1         -0.7880   -0.0340   -1.1990 oh        1 INS     -0.609800
      8 O2          1.8390   -0.8260   -0.8870 oh        1 INS     -0.609800
      9 O3          3.4060    0.2580    1.1060 oh        1 INS     -0.609800
     10 O4          2.2890   -1.0190    3.3600 oh        1 INS     -0.609800
     11 O5         -0.0770   -2.4850    2.9190 oh        1 INS     -0.609800
     12 O6         -1.8950   -1.4190    1.0390 oh        1 INS     -0.609800
     13 H1         -0.6340    0.8870    0.5900 h1        1 INS      0.069367
     14 H2          1.5560    1.2030   -0.5310 h1        1 INS      0.069367
     15 H3          1.6750    1.0640    1.9440 h1        1 INS      0.069367
     16 H4          2.0830   -2.0060    1.5340 h1        1 INS      0.069367
     17 H5         -0.2800   -0.4170    2.8370 h1        1 INS      0.069367
     18 H6         -0.1220   -2.1790    0.2560 h1        1 INS      0.069367
     19 HO1        -0.2860   -0.6510   -1.7500 ho        1 INS      0.430500
     20 HO2         2.8040   -0.7610   -0.8710 ho        1 INS      0.430500
     21 HO3         3.8400    0.1030    1.9560 ho        1 INS      0.430500
     22 HO4         1.9850   -1.7770    3.8780 ho        1 INS      0.430500
     23 HO5        -1.0280   -2.6540    2.8860 ho        1 INS      0.430500
     24 HO6        -2.3190   -1.2100    0.1950 ho        1 INS      0.430500
@<TRIPOS>BOND
     1    1    2 1   
     2    1    6 1   
     3    1    7 1   
     4    1   13 1   
     5    2    3 1   
     6    2    8 1   
     7    2   14 1   
     8    3    4 1   
     9    3    9 1   
    10    3   15 1   
    11    4    5 1   
    12    4   10 1   
    13    4   16 1   
    14    5    6 1   
    15    5   11 1   
    16    5   17 1   
    17    6   12 1   
    18    6   18 1   
    19    7   19 1   
    20    8   20 1   
    21    9   21 1   
    22   10   22 1   
    23   11   23 1   
    24   12   24 1   
@<TRIPOS>SUBSTRUCTURE
     1 INS         1 TEMP              0 ****  ****    0 ROOT
