@<TRIPOS>MOLECULE
molecule
   24    24     1     0     0
SMALL
bcc


@<TRIPOS>ATOM
      1 C1           0.0000     0.0000     0.0000 c3         1 INS       0.121600
      2 C2           1.5300     0.0000     0.0000 c3         1 INS       0.121600
      3 C3           2.0390     0.0000     1.4420 c3         1 INS       0.121600
      4 C4           1.5290    -1.2500     2.1640 c3         1 INS       0.121600
      5 C5          -0.0010    -1.2500     2.1640 c3         1 INS       0.121600
      6 C6          -0.5110    -1.2480     0.7200 c3         1 INS       0.121600
      7 O1          -0.4760     0.0010    -1.3470 oh         1 INS      -0.585300
      8 O2           2.0060    -1.1660    -0.6730 oh         1 INS      -0.585300
      9 O3           3.4680     0.0000     1.4430 oh         1 INS      -0.585300
     10 O4           2.0050    -1.2500     3.5120 oh         1 INS      -0.585300
     11 O5          -0.4780    -2.4160     2.8370 oh         1 INS      -0.585300
     12 O6          -1.9390    -1.2480     0.7200 oh         1 INS      -0.585300
     13 H1          -0.3590     0.8830     0.5150 h1         1 INS       0.058700
     14 H2           1.8890     0.8870    -0.5080 h1         1 INS       0.058700
     15 H3           1.6730     0.8830     1.9520 h1         1 INS       0.058700
     16 H4           1.8880    -2.1330     1.6490 h1         1 INS       0.058700
     17 H5          -0.3600    -0.3620     2.6720 h1         1 INS       0.058700
     18 H6          -0.1450    -2.1310     0.2100 h1         1 INS       0.058700
     19 HO1         -0.8770     0.8330    -1.5390 ho         1 INS       0.405000
     20 HO2          2.5290    -0.9100    -1.4140 ho         1 INS       0.405000
     21 HO3          3.7820     0.8450     1.7190 ho         1 INS       0.405000
     22 HO4          1.7500    -0.4470     3.9350 ho         1 INS       0.405000
     23 HO5         -1.0150    -2.1590     3.5690 ho         1 INS       0.405000
     24 HO6         -2.2540    -2.0160     0.2710 ho         1 INS       0.405000
@<TRIPOS>BOND
     1     1     2 1
     2     1     6 1
     3     1     7 1
     4     1    13 1
     5     2     3 1
     6     2     8 1
     7     2    14 1
     8     3     4 1
     9     3     9 1
    10     3    15 1
    11     4     5 1
    12     4    10 1
    13     4    16 1
    14     5     6 1
    15     5    11 1
    16     5    17 1
    17     6    12 1
    18     6    18 1
    19     7    19 1
    20     8    20 1
    21     9    21 1
    22    10    22 1
    23    11    23 1
    24    12    24 1
@<TRIPOS>SUBSTRUCTURE
     1 INS         1 TEMP              0 ****  ****    0 ROOT
