@<TRIPOS>MOLECULE
INT
   66    67     1     0     0
SMALL
bcc


@<TRIPOS>ATOM
      1 C1           1.5300     0.0000     0.0000 c3         1 INT       0.013700
      2 C2           0.0000     0.0000     0.0000 c3         1 INT       0.201400
      3 O1          -0.4760     1.1660     0.6730 oh         1 INT      -0.602800
      4 C3           2.0390     0.0000     1.4410 c3         1 INT       0.018900
      5 C4           3.5470     0.0000     1.4420 ca         1 INT      -0.098300
      6 C5           4.2380     1.1980     1.4410 ca         1 INT      -0.100000
      7 C6           5.6200     1.1990     1.4410 ca         1 INT      -0.094500
      8 C7           6.3120     0.0010     1.4410 ca         1 INT      -0.100000
      9 C8           5.6200    -1.1950     1.4430 ca         1 INT      -0.094500
     10 C9           4.2380    -1.1960     1.4480 ca         1 INT      -0.100000
     11 N1           2.0180     1.1950    -0.6920 ns         1 INT      -0.162900
     12 C10          2.8530     2.3530    -2.7110 c3         1 INT      -0.056300
     13 C11          2.2430     1.1620    -2.0200 c          1 INT       0.569100
     14 O2           1.9530     0.1730    -2.6590 o          1 INT      -0.665100
     15 C12          1.7700     3.4000    -2.9750 c3         1 INT      -0.057700
     16 CG1          2.4010     4.6350    -3.6220 c3         1 INT      -0.009600
     17 CG2          0.7140     2.8160    -3.9150 c3         1 INT      -0.009600
     18 N2           3.4430     1.9300    -3.9840 ns         1 INT      -0.157900
     19 C19          4.5110     2.5830    -4.4810 c          1 INT       0.565100
     20 O4           4.9860     3.5200    -3.8750 o          1 INT      -0.663100
     21 C18          5.1180     2.1480    -5.7900 c3         1 INT      -0.045300
     22 C20          5.5900     0.6970    -5.6760 c3         1 INT      -0.016100
     23 N4           6.2590     3.0090    -6.1100 ns         1 INT      -0.146900
     24 C31          6.5820     3.2490    -7.3960 c          1 INT       0.683100
     25 O8           5.9260     2.7520    -8.2910 o          1 INT      -0.673000
     26 O9           7.6290     4.0410    -7.6900 os         1 INT      -0.426900
     27 CA           7.9770     4.3010    -9.0760 c3         1 INT       0.310700
     28 C            9.1770     5.2100    -9.1320 ca         1 INT      -0.119300
     29 C13         10.4500     4.6710    -9.1550 ca         1 INT      -0.073500
     30 C14         11.5520     5.5030    -9.2060 ca         1 INT      -0.107000
     31 C15         11.3820     6.8740    -9.2350 ca         1 INT      -0.090000
     32 C16         10.1090     7.4120    -9.2120 ca         1 INT      -0.107000
     33 C17          9.0070     6.5790    -9.1660 ca         1 INT      -0.073500
     34 H1           1.8910    -0.8850    -0.5100 h1         1 INT       0.065700
     35 H21         -0.3610     0.0000    -1.0210 h1         1 INT       0.001200
     36 H22         -0.3610    -0.8850     0.5100 h1         1 INT       0.001200
     37 HO1         -1.4120     1.1140     0.7690 ho         1 INT       0.397000
     38 H31          1.6780     0.8840     1.9520 hc         1 INT       0.033700
     39 H32          1.6780    -0.8850     1.9520 hc         1 INT       0.033700
     40 H5           3.6960     2.1360     1.4410 ha         1 INT       0.104500
     41 H6           6.1610     2.1370     1.4400 ha         1 INT       0.104000
     42 H7           7.3950     0.0010     1.4390 ha         1 INT       0.104000
     43 H8           6.1620    -2.1330     1.4460 ha         1 INT       0.104000
     44 H9           3.6970    -2.1340     1.4500 ha         1 INT       0.104500
     45 HN1          2.1500     2.0480    -0.1840 hn         1 INT       0.186500
     46 H10          3.6230     2.7810    -2.0810 h1         1 INT       0.067700
     47 H12          1.3040     3.6820    -2.0390 hc         1 INT       0.029700
     48 HG11         2.6480     4.4160    -4.6540 hc         1 INT       0.013200
     49 HG12         3.3010     4.9050    -3.0840 hc         1 INT       0.013200
     50 HG13         1.6990     5.4600    -3.5860 hc         1 INT       0.013200
     51 HG21         0.2810     1.9300    -3.4660 hc         1 INT       0.013200
     52 HG22         1.1760     2.5530    -4.8590 hc         1 INT       0.013200
     53 HG23        -0.0640     3.5510    -4.0860 hc         1 INT       0.013200
     54 HN2          3.0730     1.1360    -4.4670 hn         1 INT       0.204500
     55 H18          4.3760     2.2250    -6.5750 h1         1 INT       0.073700
     56 H201         6.6440     0.6400    -5.9200 hc         1 INT       0.016700
     57 H202         5.0260     0.0790    -6.3640 hc         1 INT       0.016700
     58 H203         5.4340     0.3450    -4.6630 hc         1 INT       0.016700
     59 HN4          6.8190     3.3900    -5.3730 hn         1 INT       0.196500
     60 HA1          7.1410     4.7760    -9.5750 h1         1 INT       0.011200
     61 HA2          8.2090     3.3660    -9.5710 h1         1 INT       0.011200
     62 H13         10.5840     3.5960    -9.1330 ha         1 INT       0.106500
     63 H14         12.5500     5.0800    -9.2240 ha         1 INT       0.103000
     64 H15         12.2450     7.5270    -9.2730 ha         1 INT       0.101000
     65 H16          9.9750     8.4870    -9.2360 ha         1 INT       0.103000
     66 H17          8.0090     7.0010    -9.1480 ha         1 INT       0.106500
@<TRIPOS>BOND
     1     1     2 1   
     2     1     4 1   
     3     1    11 1   
     4     1    34 1   
     5     2     3 1   
     6     2    35 1   
     7     2    36 1   
     8     3    37 1   
     9     4     5 1   
    10     4    38 1   
    11     4    39 1   
    12     5     6 ar  
    13     5    10 ar  
    14     6     7 ar  
    15     6    40 1   
    16     7     8 ar  
    17     7    41 1   
    18     8     9 ar  
    19     8    42 1   
    20     9    10 ar  
    21     9    43 1   
    22    10    44 1   
    23    11    13 1   
    24    11    45 1   
    25    12    13 1   
    26    12    15 1   
    27    12    18 1   
    28    12    46 1   
    29    13    14 2   
    30    15    16 1   
    31    15    17 1   
    32    15    47 1   
    33    16    48 1   
    34    16    49 1   
    35    16    50 1   
    36    17    51 1   
    37    17    52 1   
    38    17    53 1   
    39    18    19 1   
    40    18    54 1   
    41    19    20 2   
    42    19    21 1   
    43    21    22 1   
    44    21    23 1   
    45    21    55 1   
    46    22    56 1   
    47    22    57 1   
    48    22    58 1   
    49    23    24 1   
    50    23    59 1   
    51    24    25 2   
    52    24    26 1   
    53    26    27 1   
    54    27    28 1   
    55    27    60 1   
    56    27    61 1   
    57    28    29 ar  
    58    28    33 ar  
    59    29    30 ar  
    60    29    62 1   
    61    30    31 ar  
    62    30    63 1   
    63    31    32 ar  
    64    31    64 1   
    65    32    33 ar  
    66    32    65 1   
    67    33    66 1   
@<TRIPOS>SUBSTRUCTURE
     1 INT         1 TEMP              0 ****  ****    0 ROOT
