@<TRIPOS>MOLECULE
INU
   63    67     1     0     0
SMALL
bcc


@<TRIPOS>ATOM
      1 CA         -0.1570   -0.3190   -0.0240 cc        1 INU     -0.253400
      2 CA2         0.4180   -1.6440    0.0800 c         1 INU      0.742800
      3 OA2         0.4530   -2.5870   -0.7130 o         1 INU     -0.583500
      4 OA3         1.0660   -2.0190    1.2680 os        1 INU     -0.331200
      5 CA4         1.1880   -1.1300    2.2970 cc        1 INU      0.174900
      6 CA5         0.6970    0.1460    2.2340 cd        1 INU     -0.253200
      7 CA6        -0.0200    0.5400    1.0410 cd        1 INU      0.222100
      8 OA6        -0.5790    1.7860    0.9260 oh        1 INU     -0.486100
      9 CB1        -2.2570   -0.5190   -1.3220 ca        1 INU     -0.047300
     10 CB2        -2.4520   -1.8690   -1.6310 ca        1 INU     -0.138000
     11 CB3        -3.7430   -2.3860   -1.6930 ca        1 INU     -0.104000
     12 CB4        -4.8530   -1.5830   -1.4490 ca        1 INU     -0.183000
     13 CB5        -4.6730   -0.2230   -1.1170 ca        1 INU      0.158600
     14 CB6        -3.3610    0.2970   -1.0600 ca        1 INU     -0.163000
     15 CG1        -0.8810    0.0870   -1.2720 c3        1 INU      0.079800
     16 CG2        -0.0890   -0.2420   -2.5110 cx        1 INU     -0.126700
     17 CG3        -0.3170    0.5610   -3.7650 cx        1 INU     -0.128400
     18 CG4         0.9590    0.7260   -2.9960 cx        1 INU     -0.128400
     19 CD1         1.9290   -1.7420    3.4410 c3        1 INU     -0.048200
     20 CD2         1.0180   -2.1810    4.5720 c3        1 INU     -0.073400
     21 CD3         0.5130   -1.0550    5.4530 c3        1 INU     -0.079400
     22 CD4        -0.6320   -0.2690    4.8440 c3        1 INU     -0.078400
     23 CD5        -0.2400    1.1090    4.3530 c3        1 INU     -0.076400
     24 CD6         0.9010    1.1020    3.3540 c3        1 INU     -0.027200
     25 N          -5.7670    0.6210   -0.8570 nh        1 INU     -0.776500
     26 S          -7.2390    0.2270   -0.2810 sy        1 INU      1.516200
     27 O1         -8.0270    1.3990   -0.3490 o         1 INU     -0.650800
     28 O2         -7.7540   -0.9230   -0.9070 o         1 INU     -0.650800
     29 CE1        -6.9450   -0.1320    1.3400 ca        1 INU     -0.385500
     30 CE2        -7.1010    0.8500    2.3270 ca        1 INU     -0.012000
     31 CE3        -6.8930    0.5510    3.6700 ca        1 INU     -0.158500
     32 CE4        -6.5240   -0.7420    4.0460 ca        1 INU     -0.066000
     33 CE5        -6.3680   -1.7320    3.0760 ca        1 INU     -0.158500
     34 CE6        -6.5790   -1.4250    1.7340 ca        1 INU     -0.012000
     35 HO6        -0.5490    2.2250    1.7900 ho        1 INU      0.434000
     36 HB2        -1.5830   -2.5200   -1.8210 ha        1 INU      0.161000
     37 HB3        -3.8930   -3.4470   -1.9470 ha        1 INU      0.137000
     38 HB4        -5.8640   -2.0180   -1.5310 ha        1 INU      0.164000
     39 HB6        -3.1970    1.3570   -0.8100 ha        1 INU      0.134000
     40 HG1        -1.0010    1.2140   -1.2360 hc        1 INU      0.072700
     41 HG2         0.1160   -1.3270   -2.6150 hc        1 INU      0.106700
     42 HG31       -0.2980    0.0380   -4.7370 hc        1 INU      0.070450
     43 HG32       -1.0600    1.3780   -3.7530 hc        1 INU      0.070450
     44 HG41        1.1280    1.6620   -2.4350 hc        1 INU      0.070450
     45 HG42        1.8980    0.3220   -3.4140 hc        1 INU      0.070450
     46 HD11        2.6940   -1.0120    3.8160 hc        1 INU      0.073700
     47 HD12        2.4830   -2.6460    3.0590 hc        1 INU      0.073700
     48 HD21        0.1500   -2.7540    4.1510 hc        1 INU      0.053700
     49 HD22        1.6030   -2.8930    5.2160 hc        1 INU      0.053700
     50 HD31        0.1600   -1.5110    6.4180 hc        1 INU      0.043200
     51 HD32        1.3610   -0.3680    5.7130 hc        1 INU      0.043200
     52 HD41       -1.0810   -0.8480    3.9930 hc        1 INU      0.046200
     53 HD42       -1.4400   -0.1440    5.6140 hc        1 INU      0.046200
     54 HD51        0.0600    1.7460    5.2270 hc        1 INU      0.040200
     55 HD52       -1.1420    1.5870    3.8850 hc        1 INU      0.040200
     56 HD61        1.8550    0.8480    3.8930 hc        1 INU      0.051200
     57 HD62        1.0480    2.1410    2.9500 hc        1 INU      0.051200
     58 HN         -5.5550    1.5830   -1.0100 hn        1 INU      0.454800
     59 HE2        -7.4120    1.8670    2.0300 ha        1 INU      0.154000
     60 HE3        -7.0250    1.3310    4.4340 ha        1 INU      0.141000
     61 HE4        -6.3610   -0.9810    5.1080 ha        1 INU      0.135000
     62 HE5        -6.0830   -2.7530    3.3680 ha        1 INU      0.141000
     63 HE6        -6.4670   -2.2110    0.9640 ha        1 INU      0.154000
@<TRIPOS>BOND
     1    1    2 1
     2    1    7 2
     3    1   15 1
     4    2    3 2
     5    2    4 1
     6    4    5 1
     7    5    6 2
     8    5   19 1
     9    6    7 1
    10    6   24 1
    11    7    8 1
    12    8   35 1
    13    9   10 ar
    14    9   14 ar
    15    9   15 1
    16   10   11 ar
    17   10   36 1
    18   11   12 ar
    19   11   37 1
    20   12   13 ar
    21   12   38 1
    22   13   14 ar
    23   13   25 1
    24   14   39 1
    25   15   16 1
    26   15   40 1
    27   16   17 1
    28   16   18 1
    29   16   41 1
    30   17   18 1
    31   17   42 1
    32   17   43 1
    33   18   44 1
    34   18   45 1
    35   19   20 1
    36   19   46 1
    37   19   47 1
    38   20   21 1
    39   20   48 1
    40   20   49 1
    41   21   22 1
    42   21   50 1
    43   21   51 1
    44   22   23 1
    45   22   52 1
    46   22   53 1
    47   23   24 1
    48   23   54 1
    49   23   55 1
    50   24   56 1
    51   24   57 1
    52   25   26 1
    53   25   58 1
    54   26   27 2
    55   26   28 2
    56   26   29 1
    57   29   30 ar
    58   29   34 ar
    59   30   31 ar
    60   30   59 1
    61   31   32 ar
    62   31   60 1
    63   32   33 ar
    64   32   61 1
    65   33   34 ar
    66   33   62 1
    67   34   63 1
@<TRIPOS>SUBSTRUCTURE
     1 INU         1 TEMP              0 ****  ****    0 ROOT
