@<TRIPOS>MOLECULE
INV
   35    36     1     0     0
SMALL
bcc


@<TRIPOS>ATOM
      1 C01          0.0000     0.0000     0.0000 ca         1 INV      -0.076500
      2 C02          1.3790     0.0000     0.0000 ca         1 INV       0.007500
      3 C03          2.0740     0.0000     1.1960 ca         1 INV      -0.223500
      4 C04          1.3910    -0.0050     2.3990 ca         1 INV       0.007500
      5 C05          0.0110     0.0010     2.4130 ca         1 INV      -0.076500
      6 C06         -0.6950     0.0010     1.2110 ca         1 INV      -0.039600
      7 C07         -2.1730     0.0000     1.2170 c          1 INV       0.559700
      8 O08         -2.7850     0.0000     0.1680 o          1 INV      -0.613100
      9 N09         -2.8410     0.0010     2.3870 ns         1 INV      -0.171900
     10 C10         -4.3060     0.0020     2.3950 c3         1 INV       0.115300
     11 S11          3.8360    -0.0010     1.1880 sy         1 INV       0.940200
     12 NP2          4.3320     1.5790     1.1840 nz         1 INV      -0.131500
     13 O13          4.2160    -0.5270    -0.0760 o          1 INV      -0.494800
     14 O14          4.2280    -0.5260     2.4490 o          1 INV      -0.494800
     15 C15         -4.8010     0.0010     3.8180 ca         1 INV      -0.161300
     16 C16         -5.0280     1.2000     4.4700 ca         1 INV      -0.056000
     17 C17         -5.4820     1.2020     5.7740 ca         1 INV      -0.131000
     18 C18         -5.7100     0.0030     6.4280 ca         1 INV       0.129900
     19 C19         -5.4830    -1.1950     5.7740 ca         1 INV      -0.131000
     20 C20         -5.0350    -1.1950     4.4680 ca         1 INV      -0.056000
     21 F21         -6.1550     0.0040     7.7050 f          1 INV      -0.118900
     22 H011        -0.5430    -0.0000    -0.9370 ha         1 INV       0.143000
     23 H021         1.9200     0.0010    -0.9390 ha         1 INV       0.128500
     24 H041         1.9410    -0.0050     3.3330 ha         1 INV       0.128500
     25 H051        -0.5230    -0.0000     3.3560 ha         1 INV       0.143000
     26 H091        -2.3360     0.0010     3.2510 hn         1 INV       0.177500
     27 H101        -4.6700     0.8860     1.8860 h1         1 INV       0.038700
     28 H102        -4.6700    -0.8830     1.8860 h1         1 INV       0.038700
     29 HP21         5.3320     1.6140     1.1810 hn         1 INV       0.314133
     30 HP22         3.9790     2.0370     0.3680 hn         1 INV       0.314133
     31 H161        -4.8490     2.1380     3.9570 ha         1 INV       0.111500
     32 H171        -5.6590     2.1400     6.2850 ha         1 INV       0.127500
     33 H191        -5.6640    -2.1340     6.2850 ha         1 INV       0.127500
     34 H201        -4.8570    -2.1330     3.9560 ha         1 INV       0.111500
     35 HP23         3.9800     2.0400     2.0000 hn         1 INV       0.314133
@<TRIPOS>BOND
     1     1     2 ar  
     2     1     6 ar  
     3     1    22 1   
     4     2     3 ar  
     5     2    23 1   
     6     3     4 ar  
     7     3    11 1   
     8     4     5 ar  
     9     4    24 1   
    10     5     6 ar  
    11     5    25 1   
    12     6     7 1   
    13     7     8 2   
    14     7     9 1   
    15     9    10 1   
    16     9    26 1   
    17    10    15 1   
    18    10    27 1   
    19    10    28 1   
    20    11    12 1   
    21    11    13 2   
    22    11    14 2   
    23    12    29 1   
    24    12    30 1   
    25    12    35 1   
    26    15    16 ar  
    27    15    20 ar  
    28    16    17 ar  
    29    16    31 1   
    30    17    18 ar  
    31    17    32 1   
    32    18    19 ar  
    33    18    21 1   
    34    19    20 ar  
    35    19    33 1   
    36    20    34 1   
@<TRIPOS>SUBSTRUCTURE
     1 INV         1 TEMP              0 ****  ****    0 ROOT
