@<TRIPOS>MOLECULE
molecule
   35    36     1     0     0
SMALL
bcc


@<TRIPOS>ATOM
      1 C01          0.0000     0.0000     0.0000 ca         1 INW      -0.097500
      2 C02          1.3800     0.0000     0.0000 ca         1 INW      -0.034000
      3 C03          2.0740     0.0000     1.1950 ca         1 INW      -0.334500
      4 C04          1.3910    -0.0050     2.3990 ca         1 INW      -0.034000
      5 C05          0.0110    -0.0010     2.4120 ca         1 INW      -0.097500
      6 C06         -0.6950    -0.0010     1.2100 ca         1 INW      -0.036600
      7 C07         -2.1730    -0.0010     1.2170 c          1 INW       0.652700
      8 O08         -2.7850    -0.0010     0.1680 o          1 INW      -0.570100
      9 N09         -2.8410    -0.0030     2.3870 ns         1 INW      -0.564900
     10 C10         -4.3050    -0.0030     2.3940 c3         1 INW       0.168300
     11 S11          3.8360     0.0010     1.1870 sy         1 INW       1.233200
     12 NP2          4.3310     1.5810     1.1840 nz         1 INW      -0.807500
     13 O13          4.2160    -0.5250    -0.0760 o          1 INW      -0.516800
     14 O14          4.2280    -0.5230     2.4480 o          1 INW      -0.516800
     15 C15         -4.8010    -0.0030     3.8180 ca         1 INW      -0.184300
     16 C16         -4.4670    -1.0440     4.6660 ca         1 INW       0.162900
     17 C17         -4.9170    -1.0400     5.9750 ca         1 INW      -0.209000
     18 C18         -5.7100    -0.0020     6.4300 ca         1 INW       0.178900
     19 C19         -6.0490     1.0350     5.5780 ca         1 INW      -0.178000
     20 C20         -5.5940     1.0340     4.2730 ca         1 INW      -0.060000
     21 F21         -6.1550    -0.0010     7.7070 f          1 INW      -0.120900
     22 F22         -3.6920    -2.0560     4.2200 f          1 INW      -0.132900
     23 H011        -0.5430     0.0000    -0.9380 ha         1 INW       0.176500
     24 H021         1.9210     0.0020    -0.9390 ha         1 INW       0.159500
     25 H041         1.9410    -0.0060     3.3320 ha         1 INW       0.159500
     26 H051        -0.5220    -0.0040     3.3550 ha         1 INW       0.176500
     27 H091        -2.3370     0.0350     3.2510 hn         1 INW       0.318500
     28 H101        -4.6690     0.8810     1.8850 h1         1 INW       0.074700
     29 H102        -4.6690    -0.8880     1.8850 h1         1 INW       0.074700
     30 HP21         5.3310     1.6180     1.1820 hn         1 INW       0.492800
     31 HP22         3.9820     2.0410     2.0020 hn         1 INW       0.492800
     32 H171        -4.6540    -1.8540     6.6400 ha         1 INW       0.169000
     33 H191        -6.6700     1.8480     5.9340 ha         1 INW       0.162000
     34 H201        -5.8600     1.8460     3.6070 ha         1 INW       0.151000
     35 HP23         3.9860     2.0370     0.3630 hn         1 INW       0.492800
@<TRIPOS>BOND
     1     1     2 ar
     2     1     6 ar
     3     1    23 1
     4     2     3 ar
     5     2    24 1
     6     3     4 ar
     7     3    11 1
     8     4     5 ar
     9     4    25 1
    10     5     6 ar
    11     5    26 1
    12     6     7 1
    13     7     8 2
    14     7     9 1
    15     9    10 1
    16     9    27 1
    17    10    15 1
    18    10    28 1
    19    10    29 1
    20    11    12 1
    21    11    13 2
    22    11    14 2
    23    12    30 1
    24    12    31 1
    25    15    16 ar
    26    15    20 ar
    27    16    17 ar
    28    16    22 1
    29    17    18 ar
    30    17    32 1
    31    18    19 ar
    32    18    21 1
    33    19    20 ar
    34    19    33 1
    35    20    34 1
    36    35    12 1
@<TRIPOS>SUBSTRUCTURE
     1 INW         1 TEMP              0 ****  ****    0 ROOT
