@<TRIPOS>MOLECULE
INX
   77    78     1     0     0
SMALL
bcc


@<TRIPOS>ATOM
      1 C1           0.0000     0.0000     0.0000 ca         1 INX       0.185100
      2 C2           1.3870     0.0000     0.0000 ca         1 INX      -0.269000
      3 C3           2.0790     0.0000     1.1950 ca         1 INX      -0.095000
      4 C4           1.3960    -0.0000     2.4000 ca         1 INX      -0.230300
      5 C5           0.0190    -0.0060     2.4190 ca         1 INX      -0.026000
      6 C6          -0.6940    -0.0000     1.2170 ca         1 INX      -0.149600
      7 C7           2.1640    -0.0010     3.6970 c3         1 INX       0.055900
      8 C8           2.4240     1.4420     4.1360 c3         1 INX      -0.055300
      9 O9          -0.6800    -0.0000    -1.1730 os         1 INX      -0.161900
     10 N10          3.2040     2.1320     3.1060 ns         1 INX      -0.190900
     11 C11          3.1910     1.4420     5.4330 c          1 INX       0.573100
     12 C12          3.0610     3.4600     2.9300 c          1 INX       0.570100
     13 N13          4.5380     1.4420     5.4180 ns         1 INX      -0.220900
     14 O14          2.5960     1.4420     6.4900 o          1 INX      -0.648100
     15 C15          5.2840     1.4410     6.6790 c3         1 INX       0.054000
     16 C16          6.7850     1.4420     6.3830 c3         1 INX      -0.045400
     17 C17          7.5650     1.4420     7.7000 c3         1 INX      -0.023400
     18 C18          9.0660     1.4410     7.4050 c3         1 INX      -0.030400
     19 C19          9.8450     1.4410     8.7210 c3         1 INX       0.006900
     20 O20          2.2860     4.0850     3.6240 o          1 INX      -0.639100
     21 C21          3.8640     4.1700     1.8720 c3         1 INX      -0.053300
     22 N22          3.5300     5.5970     1.8800 ns         1 INX      -0.201900
     23 C23          0.2960    -0.0010    -2.2160 c3         1 INX       0.035400
     24 C24         -0.3990    -0.0020    -3.5540 c          1 INX       0.973600
     25 O25         -1.6070    -0.0010    -3.6070 o          1 INX      -0.896300
     26 O26          0.3230    -0.0020    -4.6850 o          1 INX      -0.896300
     27 C27         -2.1680     0.0000     1.2290 c          1 INX       0.970200
     28 O28         -2.8330     0.0000     2.4020 o          1 INX      -0.880300
     29 O29         -2.7850    -0.0000     0.1820 o          1 INX      -0.880300
     30 C30          5.3560     3.9940     2.1600 c3         1 INX       0.018900
     31 C31          6.1600     4.7050     1.1010 ca         1 INX      -0.069300
     32 C32          6.5180     6.0280     1.2760 ca         1 INX      -0.083000
     33 C33          7.2540     6.6790     0.3060 ca         1 INX      -0.096500
     34 C34          7.6330     6.0080    -0.8420 ca         1 INX      -0.105000
     35 C35          7.2750     4.6840    -1.0170 ca         1 INX      -0.096500
     36 C36          6.5420     4.0320    -0.0440 ca         1 INX      -0.083000
     37 C37          3.6040     6.3130     0.7410 c          1 INX       0.567100
     38 C38          3.2610     7.7800     0.7500 c3         1 INX      -0.078400
     39 C39          3.4260     8.3520    -0.6600 c3         1 INX      -0.122400
     40 C40          3.0830     9.8190    -0.6520 c          1 INX       0.982600
     41 O41          3.1560    10.5330    -1.7860 o          1 INX      -0.918800
     42 O42          2.7410    10.3530     0.3770 o          1 INX      -0.918800
     43 O43          3.9470     5.7770    -0.2900 o          1 INX      -0.648100
     44 HC2          1.9280     0.0000    -0.9380 ha         1 INX       0.139000
     45 HC3          3.1620     0.0020     1.1900 ha         1 INX       0.063000
     46 HC5         -0.5110    -0.0060     3.3640 ha         1 INX       0.125000
     47 HC71         1.5870    -0.5120     4.4580 hc         1 INX       0.008700
     48 HC72         3.1090    -0.5120     3.5570 hc         1 INX       0.008700
     49 HC8          1.4790     1.9520     4.2750 h1         1 INX       0.107700
     50 HN10         3.8380     1.6160     2.5290 hn         1 INX       0.180500
     51 HN13         5.0280     1.3910     4.5470 hn         1 INX       0.176500
     52 H151         5.0290     0.5570     7.2490 h1         1 INX       0.020700
     53 H152         5.0290     2.3260     7.2500 h1         1 INX       0.020700
     54 H161         7.0410     0.5570     5.8120 hc         1 INX       0.018200
     55 H162         7.0400     2.3260     5.8120 hc         1 INX       0.018200
     56 H171         7.3100     2.3260     8.2710 hc         1 INX       0.015200
     57 H172         7.3090     0.5570     8.2710 hc         1 INX       0.015200
     58 H181         9.3210     0.5560     6.8340 hc         1 INX       0.013200
     59 H182         9.3220     2.3250     6.8340 hc         1 INX       0.013200
     60 H191        10.9080     1.4470     8.5120 hc         1 INX      -0.003967
     61 H192         9.5940     0.5530     9.2890 hc         1 INX      -0.003967
     62 H193         9.5850     2.3220     9.2950 hc         1 INX      -0.003967
     63 HC21         3.6320     3.7500     0.9000 h1         1 INX       0.089700
     64 HN22         3.2180     6.0330     2.7250 hn         1 INX       0.191500
     65 H231         0.9150     0.8830    -2.1310 h1         1 INX      -0.001800
     66 H232         0.9150    -0.8860    -2.1300 h1         1 INX      -0.001800
     67 H301         5.5880     4.4150     3.1320 hc         1 INX       0.007700
     68 H302         5.6040     2.9400     2.1550 hc         1 INX       0.007700
     69 HC32         6.2840     6.5330     2.2060 ha         1 INX       0.099500
     70 HC33         7.5750     7.7020     0.4640 ha         1 INX       0.095000
     71 HC34         8.2040     6.5200    -1.6060 ha         1 INX       0.091000
     72 HC35         7.5770     4.1550    -1.9130 ha         1 INX       0.095000
     73 HC36         6.4330     2.9700    -0.2280 ha         1 INX       0.099500
     74 H381         2.2350     7.9090     1.0730 hc         1 INX       0.032200
     75 H382         3.9220     8.3020     1.4310 hc         1 INX       0.032200
     76 H391         2.7640     7.8310    -1.3410 hc         1 INX       0.023700
     77 H392         4.4520     8.2230    -0.9840 hc         1 INX       0.023700
@<TRIPOS>BOND
     1     1     2 ar  
     2     1     6 ar  
     3     1     9 1   
     4     2     3 ar  
     5     2    44 1   
     6     3     4 ar  
     7     3    45 1   
     8     4     5 ar  
     9     4     7 1   
    10     5     6 ar  
    11     5    46 1   
    12     6    27 1   
    13     7     8 1   
    14     7    47 1   
    15     7    48 1   
    16     8    10 1   
    17     8    11 1   
    18     8    49 1   
    19     9    23 1   
    20    10    12 1   
    21    10    50 1   
    22    11    13 1   
    23    11    14 2   
    24    12    20 2   
    25    12    21 1   
    26    13    15 1   
    27    13    51 1   
    28    15    16 1   
    29    15    52 1   
    30    15    53 1   
    31    16    17 1   
    32    16    54 1   
    33    16    55 1   
    34    17    18 1   
    35    17    56 1   
    36    17    57 1   
    37    18    19 1   
    38    18    58 1   
    39    18    59 1   
    40    19    60 1   
    41    19    61 1   
    42    19    62 1   
    43    21    22 1   
    44    21    30 1   
    45    21    63 1   
    46    22    37 1   
    47    22    64 1   
    48    23    24 1   
    49    23    65 1   
    50    23    66 1   
    51    24    25 1   
    52    24    26 1   
    53    27    28 1   
    54    27    29 1   
    55    30    31 1   
    56    30    67 1   
    57    30    68 1   
    58    31    32 ar  
    59    31    36 ar  
    60    32    33 ar  
    61    32    69 1   
    62    33    34 ar  
    63    33    70 1   
    64    34    35 ar  
    65    34    71 1   
    66    35    36 ar  
    67    35    72 1   
    68    36    73 1   
    69    37    38 1   
    70    37    43 2   
    71    38    39 1   
    72    38    74 1   
    73    38    75 1   
    74    39    40 1   
    75    39    76 1   
    76    39    77 1   
    77    40    41 1   
    78    40    42 1   
@<TRIPOS>SUBSTRUCTURE
     1 INX         1 TEMP              0 ****  ****    0 ROOT
