@<TRIPOS>MOLECULE
molecule
   38    39     1     0     0
SMALL
bcc


@<TRIPOS>ATOM
      1 Cl1          0.0000     0.0000     0.0000 cl         1 INY      -0.105400
      2 C1           1.7360     0.0000     0.0000 ca         1 INY       0.028400
      3 C2A          2.4280     0.0000     1.1970 ca         1 INY      -0.115500
      4 C3A          3.8100     0.0000     1.1960 ca         1 INY      -0.115000
      5 C4           4.5010     0.0020    -0.0010 ca         1 INY      -0.093300
      6 C3B          3.8090     0.0070    -1.1980 ca         1 INY      -0.115000
      7 C2B          2.4270     0.0010    -1.1980 ca         1 INY      -0.115500
      8 C5           6.0070     0.0020    -0.0020 c3         1 INY       0.160000
      9 C6           6.5180    -1.4400    -0.0020 c3         1 INY      -0.106100
     10 N1           6.4950     0.6930    -1.1980 ns         1 INY      -0.578900
     11 C7           7.6720     1.3470    -1.1650 c          1 INY       0.693100
     12 O1           8.2840     1.4430    -0.1220 o          1 INY      -0.582100
     13 C8           8.2290     1.9610    -2.4230 cx         1 INY      -0.189000
     14 C9A          9.7510     2.0000    -2.5780 cx         1 INY       0.134800
     15 Cl15        10.4650     3.4260    -3.4200 cl         1 INY      -0.102900
     16 Cl16        10.7400     1.3100    -1.2390 cl         1 INY      -0.102900
     17 C9B          8.9220     1.0260    -3.4170 cx         1 INY      -0.091700
     18 C            6.9340     4.0190    -1.8510 c3         1 INY      -0.098100
     19 C17          7.4300     3.1320    -2.9960 c3         1 INY      -0.051400
     20 C12          8.7630     1.3360    -4.9070 c3         1 INY      -0.072100
     21 H2A          1.8880    -0.0010     2.1360 ha         1 INY       0.146500
     22 H3A          4.3520    -0.0020     2.1340 ha         1 INY       0.136000
     23 H3B          4.3510     0.0080    -2.1360 ha         1 INY       0.136000
     24 H2B          1.8860     0.0050    -2.1360 ha         1 INY       0.146500
     25 H5           6.3680     0.5130     0.8820 h1         1 INY       0.094700
     26 H61          5.8890    -2.0460     0.6380 hc         1 INY       0.046700
     27 H62          6.4920    -1.8320    -1.0110 hc         1 INY       0.046700
     28 H63          7.5360    -1.4620     0.3680 hc         1 INY       0.046700
     29 H99          5.9750     0.6410    -2.0520 hn         1 INY       0.317500
     30 H9B          8.9810    -0.0090    -3.1010 hc         1 INY       0.103700
     31 H1           6.0090     3.6170    -1.4580 hc         1 INY       0.045033
     32 H2           7.6800     4.0450    -1.0660 hc         1 INY       0.045033
     33 H3           6.7640     5.0230    -2.2200 hc         1 INY       0.045033
     34 H171         8.0640     3.7140    -3.6550 hc         1 INY       0.055700
     35 H172         6.5820     2.7530    -3.5530 hc         1 INY       0.055700
     36 H121         9.3260     0.6160    -5.4880 hc         1 INY       0.051033
     37 H122         9.1360     2.3330    -5.1100 hc         1 INY       0.051033
     38 H123         7.7160     1.2800    -5.1780 hc         1 INY       0.051033
@<TRIPOS>BOND
     1     1     2 1
     2     2     3 ar
     3     2     7 ar
     4     3     4 ar
     5     3    21 1
     6     4     5 ar
     7     4    22 1
     8     5     6 ar
     9     5     8 1
    10     6     7 ar
    11     6    23 1
    12     7    24 1
    13     8     9 1
    14     8    10 1
    15     8    25 1
    16     9    26 1
    17     9    27 1
    18     9    28 1
    19    10    11 1
    20    10    29 1
    21    11    12 2
    22    11    13 1
    23    13    14 1
    24    13    17 1
    25    13    19 1
    26    14    15 1
    27    14    16 1
    28    14    17 1
    29    17    20 1
    30    17    30 1
    31    18    19 1
    32    18    31 1
    33    18    32 1
    34    18    33 1
    35    19    34 1
    36    19    35 1
    37    20    36 1
    38    20    37 1
    39    20    38 1
@<TRIPOS>SUBSTRUCTURE
     1 INY         1 TEMP              0 ****  ****    0 ROOT
