@<TRIPOS>MOLECULE
molecule
   69    70     1     0     0
SMALL
bcc


@<TRIPOS>ATOM
      1 C1           0.0000     0.0000     0.0000 c          1 INZ       0.907600
      2 O2           1.3420     0.0000     0.0000 o          1 INZ      -0.864550
      3 O3          -0.6040     0.0000     1.0460 o          1 INZ      -0.864550
      4 C4          -2.7360     0.7630    -2.0110 ca         1 INZ       0.186100
      5 C5          -3.4090     0.1590    -3.0620 ca         1 INZ      -0.144000
      6 C6          -3.9950     0.9360    -4.0420 ca         1 INZ      -0.124000
      7 C7          -3.9130     2.3130    -3.9770 ca         1 INZ      -0.154300
      8 C8          -3.2380     2.9180    -2.9320 ca         1 INZ      -0.124000
      9 C9          -2.6550     2.1460    -1.9460 ca         1 INZ      -0.144000
     10 C10         -0.7530     0.0020    -1.3050 c3         1 INZ      -0.076900
     11 C11         -4.5550     3.1580    -5.0460 c3         1 INZ      -0.026100
     12 C12         -5.9960     3.4790    -4.6460 c3         1 INZ       0.071700
     13 O13         -2.1570     0.0020    -1.0450 os         1 INZ      -0.282900
     14 C14         -0.3890    -1.2280    -2.0960 c          1 INZ       0.907600
     15 O15          0.8870    -1.4410    -2.4580 o          1 INZ      -0.864550
     16 O16         -1.2450    -2.0240    -2.4050 o          1 INZ      -0.864550
     17 N17         -6.7500     2.2330    -4.4910 ns         1 INZ      -0.604900
     18 C18         -6.6370     4.3250    -5.7170 c          1 INZ       0.656100
     19 C19         -7.7700     2.1680    -3.6150 c          1 INZ       0.790100
     20 N20         -7.2900     3.7360    -6.7380 ns         1 INZ      -0.587900
     21 O21         -6.5650     5.5330    -5.6590 o          1 INZ      -0.637100
     22 C22         -7.9130     4.5580    -7.7790 c3         1 INZ       0.115000
     23 C23         -8.5830     3.6500    -8.8120 c3         1 INZ      -0.103400
     24 C24         -9.2340     4.5080    -9.8980 c3         1 INZ      -0.077400
     25 C25         -9.9040     3.6000   -10.9320 c3         1 INZ      -0.084400
     26 C26        -10.5560     4.4580   -12.0200 c3         1 INZ      -0.092100
     27 O27         -8.0660     3.1450    -2.9530 o          1 INZ      -0.670100
     28 N28         -8.4630     1.0230    -3.4710 ns         1 INZ      -0.559900
     29 C29         -9.5740     0.9520    -2.5190 c3         1 INZ       0.031700
     30 C30        -10.6120    -0.0530    -3.0190 c3         1 INZ      -0.047100
     31 C31         -9.0550     0.5090    -1.1750 c          1 INZ       0.878600
     32 O32         -9.6030     0.8800    -0.1630 o          1 INZ      -0.826800
     33 O33         -7.9830    -0.2940    -1.1010 o          1 INZ      -0.826800
     34 C34        -11.1320     0.3880    -4.3630 ca         1 INZ      -0.042300
     35 C35        -10.5040    -0.0350    -5.5200 ca         1 INZ      -0.127000
     36 C36        -10.9800     0.3700    -6.7530 ca         1 INZ      -0.138000
     37 C37        -12.0840     1.1980    -6.8290 ca         1 INZ      -0.162000
     38 C38        -12.7130     1.6200    -5.6730 ca         1 INZ      -0.138000
     39 C39        -12.2390     1.2110    -4.4400 ca         1 INZ      -0.127000
     40 HC5         -3.4740    -0.9210    -3.1150 ha         1 INZ       0.156000
     41 HC6         -4.5230     0.4640    -4.8620 ha         1 INZ       0.092000
     42 HC8         -3.1750     3.9980    -2.8810 ha         1 INZ       0.092000
     43 HC9         -2.1280     2.6200    -1.1270 ha         1 INZ       0.156000
     44 HC10        -0.4900     0.8870    -1.8720 h1         1 INZ       0.026700
     45 H111        -4.5530     2.6160    -5.9840 hc         1 INZ       0.035200
     46 H112        -3.9980     4.0800    -5.1610 hc         1 INZ       0.035200
     47 HC12        -5.9980     4.0220    -3.7090 h1         1 INZ       0.128700
     48 HN17        -6.4940     1.4240    -5.0220 hn         1 INZ       0.302500
     49 HN20        -7.3660     2.7390    -6.7760 hn         1 INZ       0.319500
     50 H221        -8.6570     5.2050    -7.3310 h1         1 INZ       0.041700
     51 H222        -7.1560     5.1600    -8.2660 h1         1 INZ       0.041700
     52 H231        -7.8390     3.0020    -9.2610 hc         1 INZ       0.048700
     53 H232        -9.3410     3.0470    -8.3260 hc         1 INZ       0.048700
     54 H241        -9.9790     5.1550    -9.4500 hc         1 INZ       0.039700
     55 H242        -8.4770     5.1120   -10.3840 hc         1 INZ       0.039700
     56 H251        -9.1590     2.9530   -11.3800 hc         1 INZ       0.041200
     57 H252       -10.6610     2.9960   -10.4460 hc         1 INZ       0.041200
     58 H261       -11.2920     5.1130   -11.5700 hc         1 INZ       0.026033
     59 H262        -9.7970     5.0520   -12.5140 hc         1 INZ       0.026033
     60 H263       -11.0400     3.8150   -12.7450 hc         1 INZ       0.026033
     61 HN28        -8.2050     0.2120    -3.9990 hn         1 INZ       0.297500
     62 HC29       -10.0320     1.9290    -2.4250 h1         1 INZ       0.070700
     63 H301       -11.4330    -0.1060    -2.3140 hc         1 INZ       0.059200
     64 H302       -10.1530    -1.0300    -3.1130 hc         1 INZ       0.059200
     65 HC35        -9.6390    -0.6840    -5.4600 ha         1 INZ       0.134000
     66 HC36       -10.4880     0.0380    -7.6590 ha         1 INZ       0.108500
     67 HC37       -12.4560     1.5160    -7.7950 ha         1 INZ       0.103000
     68 HC38       -13.5790     2.2680    -5.7330 ha         1 INZ       0.108500
     69 HC39       -12.7310     1.5420    -3.5340 ha         1 INZ       0.134000
@<TRIPOS>BOND
     1     1     2 1
     2     1     3 1
     3     1    10 1
     4     4     5 ar
     5     4     9 ar
     6     4    13 1
     7     5     6 ar
     8     5    40 1
     9     6     7 ar
    10     6    41 1
    11     7     8 ar
    12     7    11 1
    13     8     9 ar
    14     8    42 1
    15     9    43 1
    16    10    13 1
    17    10    14 1
    18    10    44 1
    19    11    12 1
    20    11    45 1
    21    11    46 1
    22    12    17 1
    23    12    18 1
    24    12    47 1
    25    14    15 1
    26    14    16 1
    27    17    19 1
    28    17    48 1
    29    18    20 1
    30    18    21 2
    31    19    27 2
    32    19    28 1
    33    20    22 1
    34    20    49 1
    35    22    23 1
    36    22    50 1
    37    22    51 1
    38    23    24 1
    39    23    52 1
    40    23    53 1
    41    24    25 1
    42    24    54 1
    43    24    55 1
    44    25    26 1
    45    25    56 1
    46    25    57 1
    47    26    58 1
    48    26    59 1
    49    26    60 1
    50    28    29 1
    51    28    61 1
    52    29    30 1
    53    29    31 1
    54    29    62 1
    55    30    34 1
    56    30    63 1
    57    30    64 1
    58    31    32 1
    59    31    33 1
    60    34    35 ar
    61    34    39 ar
    62    35    36 ar
    63    35    65 1
    64    36    37 ar
    65    36    66 1
    66    37    38 ar
    67    37    67 1
    68    38    39 ar
    69    38    68 1
    70    39    69 1
@<TRIPOS>SUBSTRUCTURE
     1 INZ         1 TEMP              0 ****  ****    0 ROOT
