@<TRIPOS>MOLECULE
molecule
   31    32     1     0     0
SMALL
bcc


@<TRIPOS>ATOM
      1 C1           0.0000     0.0000     0.0000 ca         1 IO2      -0.130000
      2 C2           1.3830     0.0000     0.0000 ca         1 IO2      -0.137500
      3 C3           2.0740     0.0000     1.1980 ca         1 IO2      -0.104500
      4 C4           1.3810     0.0010     2.3940 ca         1 IO2      -0.080300
      5 C5          -0.0010     0.0020     2.3940 ca         1 IO2      -0.104500
      6 C6          -0.6910     0.0010     1.1960 ca         1 IO2      -0.137500
      7 C7           2.1350     0.0020     3.7000 c3         1 IO2       0.188700
      8 O8           2.3740     1.3490     4.1120 os         1 IO2      -0.337900
      9 C9           3.0470     1.5260     5.2790 ca         1 IO2       0.096100
     10 C10          3.3130     2.8080     5.7390 ca         1 IO2      -0.190000
     11 C11          3.9980     2.9860     6.9260 ca         1 IO2      -0.088500
     12 C12          4.4180     1.8880     7.6540 ca         1 IO2      -0.036300
     13 C13          4.1530     0.6100     7.1980 ca         1 IO2      -0.088500
     14 C14          3.4640     0.4270     6.0150 ca         1 IO2      -0.190000
     15 C15          5.1650     2.0860     8.9490 c3         1 IO2      -0.150100
     16 C16          4.1830     2.1530    10.0900 c          1 IO2       0.892600
     17 O17          4.6240     2.3250    11.3460 o          1 IO2      -0.844300
     18 O18          2.9980     2.0510     9.8740 o          1 IO2      -0.844300
     19 H1          -0.5410    -0.0000    -0.9380 ha         1 IO2       0.121000
     20 H2           1.9250    -0.0010    -0.9380 ha         1 IO2       0.124000
     21 H3           3.1570    -0.0000     1.1990 ha         1 IO2       0.136500
     22 H5          -0.5430     0.0030     3.3310 ha         1 IO2       0.136500
     23 H6          -1.7750     0.0020     1.1950 ha         1 IO2       0.124000
     24 H7           3.0810    -0.5090     3.5710 h1         1 IO2       0.038700
     25 H7A          1.5490    -0.5090     4.4550 h1         1 IO2       0.038700
     26 H10          3.0310     3.6670     5.1420 ha         1 IO2       0.117000
     27 H11          4.2220     3.9860     7.2760 ha         1 IO2       0.130000
     28 H13          4.5090    -0.2480     7.7560 ha         1 IO2       0.130000
     29 H14          3.2920    -0.5740     5.6380 ha         1 IO2       0.117000
     30 H15          5.7290     3.0100     8.9030 hc         1 IO2       0.038200
     31 H15A         5.8430     1.2560     9.1040 hc         1 IO2       0.038200
@<TRIPOS>BOND
     1     2     1 ar
     2     1     6 ar
     3     1    19 1
     4     3     2 ar
     5     2    20 1
     6     3     4 ar
     7     3    21 1
     8     7     4 1
     9     4     5 ar
    10     5     6 ar
    11     5    22 1
    12     6    23 1
    13     7     8 1
    14     7    24 1
    15     7    25 1
    16     8     9 1
    17     9    10 ar
    18     9    14 ar
    19    10    11 ar
    20    10    26 1
    21    11    12 ar
    22    11    27 1
    23    13    12 ar
    24    12    15 1
    25    14    13 ar
    26    13    28 1
    27    14    29 1
    28    16    15 1
    29    15    30 1
    30    15    31 1
    31    18    16 1
    32    16    17 1
@<TRIPOS>SUBSTRUCTURE
     1 IO2         1 TEMP              0 ****  ****    0 ROOT
