@<TRIPOS>MOLECULE
molecule
   27    27     1     0     0
SMALL
bcc


@<TRIPOS>ATOM
      1 I1           0.0000     0.0000     0.0000 i          1 IO3      -0.179900
      2 I2           5.2120    -0.0020    -3.0170 i          1 IO3      -0.192900
      3 I3           5.2120    -0.0010     3.0170 i          1 IO3      -0.128900
      4 O1           6.2220     0.0010    -0.0010 oh         1 IO3      -0.503100
      5 O2           2.8670    -2.6770     4.0770 o          1 IO3      -0.840300
      6 O3           3.1300    -2.9460     1.8990 o          1 IO3      -0.840300
      7 C1           2.7860     0.0000     1.1980 ca         1 IO3       0.059700
      8 C2           2.0950     0.0000     0.0000 ca         1 IO3       0.051900
      9 C3           2.7850    -0.0000    -1.1990 ca         1 IO3      -0.049000
     10 C4           4.1680    -0.0000    -1.2010 ca         1 IO3       0.014900
     11 C5           4.8620    -0.0000    -0.0000 ca         1 IO3       0.174100
     12 C6           4.1680     0.0000     1.2010 ca         1 IO3       0.061900
     13 C8           1.4220    -1.3760     2.7460 c3         1 IO3      -0.174700
     14 C9           2.5270    -2.3810     2.9570 c          1 IO3       0.885600
     15 C10          0.5320    -1.3300     3.9890 c3         1 IO3      -0.057400
     16 C11         -0.1740    -2.6760     4.1620 c3         1 IO3      -0.083100
     17 H1           6.5350     0.8890     0.0370 ho         1 IO3       0.415000
     18 H3           2.2420     0.0070    -2.1360 ha         1 IO3       0.140000
     19 H4           1.2400     0.7460     2.4580 hc         1 IO3       0.052700
     20 H5           2.7080     0.2510     3.3110 hc         1 IO3       0.052700
     21 H6           0.8290    -1.6660     1.8870 hc         1 IO3       0.054700
     22 H7           1.1410    -1.1270     4.8620 hc         1 IO3       0.025200
     23 H8          -0.2080    -0.5470     3.8740 hc         1 IO3       0.025200
     24 H9          -0.4080    -3.0890     3.1880 hc         1 IO3       0.027367
     25 H10         -1.0890    -2.5350     4.7230 hc         1 IO3       0.027367
     26 H11          0.4760    -3.3590     4.6960 hc         1 IO3       0.027367
     27 C7           2.0300     0.0070     2.5020 c3         1 IO3      -0.047100
@<TRIPOS>BOND
     1     5    14 1
     2     6    14 1
     3    14    13 1
     4    16    15 1
     5    15    13 1
     6    13    27 1
     7    27     7 1
     8     3    12 1
     9     1     8 1
    10     7    12 ar
    11     7     8 ar
    12    12    11 ar
    13     8     9 ar
    14    11     4 1
    15    11    10 ar
    16     9    10 ar
    17    10     2 1
    18     4    17 1
    19     9    18 1
    20    27    19 1
    21    27    20 1
    22    13    21 1
    23    15    22 1
    24    15    23 1
    25    16    24 1
    26    16    25 1
    27    16    26 1
@<TRIPOS>SUBSTRUCTURE
     1 IO3         1 TEMP              0 ****  ****    0 ROOT
