@<TRIPOS>MOLECULE
IO3
   27    27     1     0     0
SMALL
bcc


@<TRIPOS>ATOM
      1 I1          0.6730   -0.5190   -1.8590 i         1 IO3      0.148000
      2 I2          4.8850    2.3220   -2.6430 i         1 IO3      0.141000
      3 I3          4.6470    0.3790    2.5870 i         1 IO3      0.172000
      4 O1          6.4850    0.5720   -0.0850 oh        1 IO3     -0.238000
      5 O2          2.0080   -3.9170    4.7470 o         1 IO3     -0.577000
      6 O3          2.2060   -3.0270    2.7150 o         1 IO3     -0.577000
      7 C1          2.8250   -0.0570    0.2130 c2        1 IO3      0.212000
      8 C2          2.5230   -0.1200   -1.1430 c2        1 IO3     -0.414000
      9 C3          3.4720    0.0610   -2.1460 c1        1 IO3     -0.117000
     10 C4          4.8380    0.4100   -1.7860 c3        1 IO3     -0.244000
     11 C5          5.1560    0.4110   -0.3340 c2        1 IO3      0.137000
     12 C6          4.1810    0.2400    0.6160 c2        1 IO3     -0.413000
     13 C8          0.5980   -2.0510    4.1860 cx        1 IO3     -0.207000
     14 C9          1.6770   -3.0730    3.8690 c2        1 IO3      0.351000
     15 C10         0.4570   -1.5410    5.5940 cx        1 IO3     -0.214000
     16 C11        -0.5790   -2.4650    5.0260 cx        1 IO3     -0.214000
     17 H1          6.6430    0.5270    0.8760 ho        1 IO3      0.240000
     18 H3          5.5810   -0.2090   -2.3530 h1        1 IO3      0.183000
     19 H4          0.7790   -0.2860    0.8540 hc        1 IO3      0.155000
     20 H5          1.9060    0.3920    2.1090 hc        1 IO3      0.155000
     21 H6          1.9860   -1.3750    1.6830 hc        1 IO3      0.155000
     22 H7          0.4260   -1.3460    3.3500 hc        1 IO3      0.093000
     23 H8          0.1990   -0.4820    5.7630 hc        1 IO3      0.093500
     24 H9          1.1560   -1.9370    6.3540 hc        1 IO3      0.093500
     25 H10        -1.5810   -2.0690    4.7870 hc        1 IO3      0.093500
     26 H11        -0.6100   -3.5090    5.3880 hc        1 IO3      0.093500
     27 C7          1.8230   -0.3220    1.2520 c3        1 IO3     -0.301000
@<TRIPOS>BOND
     1    1    8 1   
     2    2   10 1   
     3    3   12 1   
     4    4   11 1   
     5    4   17 1   
     6    5   14 1   
     7    6   14 1   
     8    7    8 1   
     9    7   12 1   
    10    7   27 1   
    11    8    9 1   
    12    9   10 1   
    13   10   11 1   
    14   10   18 1   
    15   11   12 1   
    16   13   14 1   
    17   13   15 1   
    18   13   16 1   
    19   13   22 1   
    20   15   16 1   
    21   15   23 1   
    22   15   24 1   
    23   16   25 1   
    24   16   26 1   
    25   19   27 1   
    26   20   27 1   
    27   21   27 1   
@<TRIPOS>SUBSTRUCTURE
     1 IO3         1 TEMP              0 ****  ****    0 ROOT
