@<TRIPOS>MOLECULE
IOA
   35    36     1     0     0
SMALL
bcc


@<TRIPOS>ATOM
      1 C01          0.0000     0.0000     0.0000 ca         1 IOA      -0.076000
      2 C02          1.3790     0.0000     0.0000 ca         1 IOA       0.007500
      3 C03          2.0740     0.0000     1.1960 ca         1 IOA      -0.223500
      4 C04          1.3900    -0.0060     2.3990 ca         1 IOA       0.007500
      5 C05          0.0110    -0.0010     2.4130 ca         1 IOA      -0.076000
      6 C06         -0.6960    -0.0010     1.2100 ca         1 IOA      -0.037600
      7 C07         -2.1730    -0.0020     1.2170 c          1 IOA       0.563700
      8 O08         -2.7860    -0.0010     0.1670 o          1 IOA      -0.613100
      9 N09         -2.8420    -0.0020     2.3870 ns         1 IOA      -0.169900
     10 C10         -4.3070    -0.0020     2.3940 c3         1 IOA       0.118300
     11 S11          3.8360     0.0000     1.1870 sy         1 IOA       0.942200
     12 NP2          4.3300     1.5810     1.1860 nz         1 IOA      -0.131500
     13 O13          4.2160    -0.5240    -0.0760 o          1 IOA      -0.495300
     14 O14          4.2270    -0.5240     2.4490 o          1 IOA      -0.495300
     15 C15         -4.8020    -0.0030     3.8170 ca         1 IOA      -0.140300
     16 C16         -5.5940     1.0310     4.2740 ca         1 IOA      -0.091000
     17 C17         -6.0510     1.0310     5.5800 ca         1 IOA       0.107900
     18 C18         -5.7130    -0.0080     6.4300 ca         1 IOA      -0.092000
     19 C19         -4.9200    -1.0440     5.9740 ca         1 IOA      -0.098000
     20 C20         -4.4690    -1.0450     4.6650 ca         1 IOA       0.091900
     21 F21         -3.6930    -2.0580     4.2190 f          1 IOA      -0.126900
     22 F22         -6.8260     2.0430     6.0260 f          1 IOA      -0.114900
     23 H011        -0.5420     0.0000    -0.9380 ha         1 IOA       0.142500
     24 H021         1.9200     0.0030    -0.9390 ha         1 IOA       0.128000
     25 H041         1.9400    -0.0060     3.3330 ha         1 IOA       0.128000
     26 H051        -0.5230    -0.0040     3.3550 ha         1 IOA       0.142500
     27 H091        -2.3380     0.0320     3.2510 hn         1 IOA       0.179500
     28 H101        -4.6700    -0.8860     1.8850 h1         1 IOA       0.043700
     29 H102        -4.6700     0.8830     1.8860 h1         1 IOA       0.043700
     30 HP21         3.9820     2.0400     2.0040 hn         1 IOA       0.313467
     31 HP22         3.9780     2.0400     0.3700 hn         1 IOA       0.313467
     32 H161        -5.8590     1.8440     3.6090 ha         1 IOA       0.131000
     33 H181        -6.0680    -0.0080     7.4530 ha         1 IOA       0.131000
     34 H191        -4.6570    -1.8580     6.6390 ha         1 IOA       0.130000
     35 HP23         5.3300     1.6170     1.1720 hn         1 IOA       0.313467
@<TRIPOS>BOND
     1     1     2 ar  
     2     1     6 ar  
     3     1    23 1   
     4     2     3 ar  
     5     2    24 1   
     6     3     4 ar  
     7     3    11 1   
     8     4     5 ar  
     9     4    25 1   
    10     5     6 ar  
    11     5    26 1   
    12     6     7 1   
    13     7     8 2   
    14     7     9 1   
    15     9    10 1   
    16     9    27 1   
    17    10    15 1   
    18    10    28 1   
    19    10    29 1   
    20    11    12 1   
    21    11    13 2   
    22    11    14 2   
    23    12    30 1   
    24    12    31 1   
    25    12    35 1   
    26    15    16 ar  
    27    15    20 ar  
    28    16    17 ar  
    29    16    32 1   
    30    17    18 ar  
    31    17    22 1   
    32    18    19 ar  
    33    18    33 1   
    34    19    20 ar  
    35    19    34 1   
    36    20    21 1   
@<TRIPOS>SUBSTRUCTURE
     1 IOA         1 TEMP              0 ****  ****    0 ROOT
