@<TRIPOS>MOLECULE
molecule
   16    16     1     0     0
SMALL
bcc


@<TRIPOS>ATOM
      1 CG           0.0000     0.0000     0.0000 ca         1 IOB      -0.088300
      2 CD2          1.3820     0.0000     0.0000 ca         1 IOB      -0.092000
      3 CD1         -0.6910     0.0050     1.1960 ca         1 IOB      -0.077000
      4 CE2          2.0730     0.0000     1.1970 ca         1 IOB      -0.133000
      5 CE1         -0.0010    -0.0010     2.3940 ca         1 IOB       0.050900
      6 CZ           1.3820    -0.0010     2.3940 ca         1 IOB      -0.092000
      7 I           -1.0470    -0.0010     4.2070 i          1 IOB      -0.169900
      8 O           -0.9910    -1.3450    -1.7190 oh         1 IOB      -0.602800
      9 CB          -0.7530     0.0010    -1.3060 c3         1 IOB       0.188700
     10 HD2          1.9240    -0.0020    -0.9380 ha         1 IOB       0.136000
     11 HD1         -1.7750     0.0050     1.1960 ha         1 IOB       0.144000
     12 HE2          3.1560     0.0000     1.1970 ha         1 IOB       0.137000
     13 HZ           1.9240    -0.0030     3.3320 ha         1 IOB       0.141000
     14 H           -1.4620    -1.3450    -2.5360 ho         1 IOB       0.403000
     15 HB2         -1.7000     0.5110    -1.1770 h1         1 IOB       0.027200
     16 HB1         -0.1680     0.5130    -2.0600 h1         1 IOB       0.027200
@<TRIPOS>BOND
     1     1     2 ar
     2     1     3 ar
     3     1     9 1
     4     2     4 ar
     5     2    10 1
     6     3     5 ar
     7     3    11 1
     8     4     6 ar
     9     4    12 1
    10     5     6 ar
    11     5     7 1
    12     6    13 1
    13     8     9 1
    14     8    14 1
    15     9    15 1
    16     9    16 1
@<TRIPOS>SUBSTRUCTURE
     1 IOB         1 TEMP              0 ****  ****    0 ROOT
