@<TRIPOS>MOLECULE
IOB
   16    16     1     0     0
SMALL
bcc


@<TRIPOS>ATOM
      1 CG         -0.0840   -0.1200    0.0400 ca        1 IOB     -0.092300
      2 CD2         1.2680   -0.4730    0.0540 ca        1 IOB     -0.084000
      3 CD1        -0.7040    0.3020    1.2230 ca        1 IOB     -0.099000
      4 CE2         1.9920   -0.4040    1.2440 ca        1 IOB     -0.136000
      5 CE1         0.0240    0.3690    2.4090 ca        1 IOB      0.022900
      6 CZ          1.3740    0.0160    2.4210 ca        1 IOB     -0.096000
      7 I          -0.8780    0.9780    4.1120 i         1 IOB     -0.146900
      8 O          -0.0960   -0.6340   -2.2830 oh        1 IOB     -0.599800
      9 CB         -0.9020   -0.1760   -1.2080 c3        1 IOB      0.176700
     10 HD2         1.7540   -0.8040   -0.8780 ha        1 IOB      0.158000
     11 HD1        -1.7700    0.5780    1.2040 ha        1 IOB      0.141000
     12 HE2         3.0570   -0.6820    1.2540 ha        1 IOB      0.138000
     13 HZ          1.9570    0.0660    3.3530 ha        1 IOB      0.143000
     14 H          -0.6670   -0.6520   -3.0590 ho        1 IOB      0.405000
     15 HB2        -1.7700   -0.8780   -1.0610 h1        1 IOB      0.034700
     16 HB1        -1.3020    0.8500   -1.4460 h1        1 IOB      0.034700
@<TRIPOS>BOND
     1    1    2 ar  
     2    1    3 ar  
     3    1    9 1   
     4    2    4 ar  
     5    2   10 1   
     6    3    5 ar  
     7    3   11 1   
     8    4    6 ar  
     9    4   12 1   
    10    5    6 ar  
    11    5    7 1   
    12    6   13 1   
    13    8    9 1   
    14    8   14 1   
    15    9   15 1   
    16    9   16 1   
@<TRIPOS>SUBSTRUCTURE
     1 IOB         1 TEMP              0 ****  ****    0 ROOT
