@<TRIPOS>MOLECULE
IOC
   35    36     1     0     0
SMALL
bcc


@<TRIPOS>ATOM
      1 C01          0.0000     0.0000     0.0000 ca         1 IOC      -0.075000
      2 C02          1.3800     0.0000     0.0000 ca         1 IOC       0.007000
      3 C03          2.0740     0.0000     1.1950 ca         1 IOC      -0.221500
      4 C04          1.3920    -0.0050     2.3990 ca         1 IOC       0.007000
      5 C05          0.0120     0.0010     2.4130 ca         1 IOC      -0.075000
      6 C06         -0.6940     0.0010     1.2100 ca         1 IOC      -0.039600
      7 C07         -2.1720     0.0020     1.2180 c          1 IOC       0.564700
      8 O08         -2.7860     0.0020     0.1680 o          1 IOC      -0.612100
      9 N09         -2.8400     0.0010     2.3880 ns         1 IOC      -0.172900
     10 C10         -4.3050     0.0030     2.3950 c3         1 IOC       0.120300
     11 S11          3.8360    -0.0000     1.1860 sy         1 IOC       0.941200
     12 NP2          4.3320     1.5800     1.1830 nz         1 IOC      -0.132500
     13 O13          4.2160    -0.5260    -0.0770 o          1 IOC      -0.494300
     14 O14          4.2290    -0.5240     2.4470 o          1 IOC      -0.494300
     15 C15         -4.8000     0.0020     3.8180 ca         1 IOC      -0.159300
     16 C16         -4.4670    -1.0370     4.6670 ca         1 IOC       0.103900
     17 C17         -4.9170    -1.0330     5.9780 ca         1 IOC       0.060900
     18 C18         -5.7110     0.0070     6.4330 ca         1 IOC       0.123900
     19 C19         -6.0470     1.0440     5.5790 ca         1 IOC      -0.115000
     20 C20         -5.5920     1.0400     4.2740 ca         1 IOC      -0.041000
     21 F21         -6.1560     0.0110     7.7070 f          1 IOC      -0.100900
     22 F22         -3.6940    -2.0510     4.2210 f          1 IOC      -0.111900
     23 F23         -4.5880    -2.0450     6.8100 f          1 IOC      -0.096900
     24 H011        -0.5430    -0.0000    -0.9370 ha         1 IOC       0.142500
     25 H021         1.9200     0.0020    -0.9390 ha         1 IOC       0.129000
     26 H041         1.9420    -0.0050     3.3320 ha         1 IOC       0.129000
     27 H051        -0.5210    -0.0010     3.3550 ha         1 IOC       0.142500
     28 H091        -2.3360     0.0420     3.2520 hn         1 IOC       0.180500
     29 H101        -4.6700    -0.8810     1.8860 h1         1 IOC       0.044700
     30 H102        -4.6680     0.8880     1.8870 h1         1 IOC       0.044700
     31 HP21         3.9840     2.0410     2.0000 hn         1 IOC       0.313800
     32 HP22         3.9800     2.0390     0.3660 hn         1 IOC       0.313800
     33 H191        -6.6680     1.8580     5.9330 ha         1 IOC       0.137000
     34 H201        -5.8560     1.8520     3.6070 ha         1 IOC       0.123000
     35 HP23         5.3320     1.6160     1.1890 hn         1 IOC       0.313800
@<TRIPOS>BOND
     1     1     2 ar  
     2     1     6 ar  
     3     1    24 1   
     4     2     3 ar  
     5     2    25 1   
     6     3     4 ar  
     7     3    11 1   
     8     4     5 ar  
     9     4    26 1   
    10     5     6 ar  
    11     5    27 1   
    12     6     7 1   
    13     7     8 2   
    14     7     9 1   
    15     9    10 1   
    16     9    28 1   
    17    10    15 1   
    18    10    29 1   
    19    10    30 1   
    20    11    12 1   
    21    11    13 2   
    22    11    14 2   
    23    12    31 1   
    24    12    32 1   
    25    12    35 1   
    26    15    16 ar  
    27    15    20 ar  
    28    16    17 ar  
    29    16    22 1   
    30    17    18 ar  
    31    17    23 1   
    32    18    19 ar  
    33    18    21 1   
    34    19    20 ar  
    35    19    33 1   
    36    20    34 1   
@<TRIPOS>SUBSTRUCTURE
     1 IOC         1 TEMP              0 ****  ****    0 ROOT
