@<TRIPOS>MOLECULE
IOE
   35    36     1     0     0
SMALL
bcc


@<TRIPOS>ATOM
      1 C01          0.0000     0.0000     0.0000 ca         1 IOE      -0.075500
      2 C02          1.3800     0.0000     0.0000 ca         1 IOE       0.007000
      3 C03          2.0740     0.0000     1.1950 ca         1 IOE      -0.222500
      4 C04          1.3920    -0.0030     2.3990 ca         1 IOE       0.007000
      5 C05          0.0120     0.0040     2.4130 ca         1 IOE      -0.075500
      6 C06         -0.6940     0.0020     1.2110 ca         1 IOE      -0.038600
      7 C07         -2.1730     0.0040     1.2190 c          1 IOE       0.563700
      8 O08         -2.7860     0.0040     0.1700 o          1 IOE      -0.609100
      9 N09         -2.8400     0.0070     2.3890 ns         1 IOE      -0.170900
     10 C10         -4.3050     0.0080     2.3970 c3         1 IOE       0.120300
     11 S11          3.8360    -0.0020     1.1850 sy         1 IOE       0.942200
     12 NP2          4.3330     1.5770     1.1810 nz         1 IOE      -0.132500
     13 O13          4.2150    -0.5290    -0.0780 o          1 IOE      -0.495800
     14 O14          4.2280    -0.5260     2.4460 o          1 IOE      -0.495800
     15 C15         -4.7990     0.0110     3.8210 ca         1 IOE      -0.223300
     16 C16         -5.0250     1.2100     4.4730 ca         1 IOE       0.176900
     17 C17         -5.4800     1.2120     5.7810 ca         1 IOE      -0.179000
     18 C18         -5.7090     0.0140     6.4350 ca         1 IOE       0.183900
     19 C19         -5.4840    -1.1850     5.7830 ca         1 IOE      -0.179000
     20 C20         -5.0330    -1.1870     4.4740 ca         1 IOE       0.176900
     21 F21         -4.8130    -2.3570     3.8370 f          1 IOE      -0.113900
     22 F22         -6.1520     0.0160     7.7120 f          1 IOE      -0.108900
     23 F23         -4.8020     2.3790     3.8350 f          1 IOE      -0.113900
     24 H011        -0.5430    -0.0010    -0.9370 ha         1 IOE       0.142500
     25 H021         1.9200     0.0000    -0.9390 ha         1 IOE       0.128500
     26 H041         1.9420    -0.0020     3.3320 ha         1 IOE       0.128500
     27 H051        -0.5210     0.0040     3.3560 ha         1 IOE       0.142500
     28 H091        -2.3350     0.0080     3.2530 hn         1 IOE       0.176500
     29 H101        -4.6680     0.8920     1.8870 h1         1 IOE       0.049700
     30 H102        -4.6690    -0.8770     1.8900 h1         1 IOE       0.049700
     31 HP21         3.9810     2.0350     0.3640 hn         1 IOE       0.314133
     32 HP22         5.3340     1.6120     1.1780 hn         1 IOE       0.314133
     33 H171        -5.6560     2.1510     6.2920 ha         1 IOE       0.147500
     34 H191        -5.6650    -2.1230     6.2950 ha         1 IOE       0.147500
     35 HP23         3.9910     2.0370     2.0010 hn         1 IOE       0.314133
@<TRIPOS>BOND
     1     1     2 ar  
     2     1     6 ar  
     3     1    24 1   
     4     2     3 ar  
     5     2    25 1   
     6     3     4 ar  
     7     3    11 1   
     8     4     5 ar  
     9     4    26 1   
    10     5     6 ar  
    11     5    27 1   
    12     6     7 1   
    13     7     8 2   
    14     7     9 1   
    15     9    10 1   
    16     9    28 1   
    17    10    15 1   
    18    10    29 1   
    19    10    30 1   
    20    11    12 1   
    21    11    13 2   
    22    11    14 2   
    23    12    31 1   
    24    12    32 1   
    25    12    35 1   
    26    15    16 ar  
    27    15    20 ar  
    28    16    17 ar  
    29    16    23 1   
    30    17    18 ar  
    31    17    33 1   
    32    18    19 ar  
    33    18    22 1   
    34    19    20 ar  
    35    19    34 1   
    36    20    21 1   
@<TRIPOS>SUBSTRUCTURE
     1 IOE         1 TEMP              0 ****  ****    0 ROOT
