@<TRIPOS>MOLECULE
molecule
   35    36     1     0     0
SMALL
bcc


@<TRIPOS>ATOM
      1 C01          0.0000     0.0000     0.0000 ca         1 IOF      -0.097000
      2 C02          1.3800     0.0000     0.0000 ca         1 IOF      -0.033000
      3 C03          2.0750     0.0000     1.1950 ca         1 IOF      -0.334500
      4 C04          1.3930    -0.0060     2.3990 ca         1 IOF      -0.033000
      5 C05          0.0130     0.0010     2.4140 ca         1 IOF      -0.097000
      6 C06         -0.6940     0.0000     1.2120 ca         1 IOF      -0.039600
      7 C07         -2.1720     0.0020     1.2190 c          1 IOF       0.651700
      8 O08         -2.7860     0.0030     0.1700 o          1 IOF      -0.566100
      9 N09         -2.8400     0.0020     2.3900 ns         1 IOF      -0.570900
     10 C10         -4.3040     0.0030     2.3980 c3         1 IOF       0.164300
     11 S11          3.8370    -0.0020     1.1860 sy         1 IOF       1.234200
     12 NP2          4.3330     1.5770     1.1820 nz         1 IOF      -0.807500
     13 O13          4.2150    -0.5280    -0.0790 o          1 IOF      -0.515300
     14 O14          4.2290    -0.5270     2.4460 o          1 IOF      -0.515300
     15 C15         -4.7990     0.0030     3.8220 ca         1 IOF      -0.098300
     16 C16         -5.0240     1.2000     4.4730 ca         1 IOF      -0.148500
     17 C17         -5.4790     1.2030     5.7800 ca         1 IOF       0.126900
     18 C18         -5.7090     0.0050     6.4360 ca         1 IOF       0.077900
     19 C19         -5.4820    -1.1960     5.7790 ca         1 IOF       0.126900
     20 C20         -5.0320    -1.1930     4.4710 ca         1 IOF      -0.148500
     21 F21         -5.7000     2.3730     6.4170 f          1 IOF      -0.109900
     22 F22         -6.1530     0.0040     7.7110 f          1 IOF      -0.100900
     23 F23         -5.7060    -2.3660     6.4160 f          1 IOF      -0.109900
     24 H011        -0.5430    -0.0000    -0.9370 ha         1 IOF       0.176000
     25 H021         1.9200     0.0020    -0.9390 ha         1 IOF       0.160500
     26 H041         1.9430    -0.0050     3.3320 ha         1 IOF       0.160500
     27 H051        -0.5200    -0.0010     3.3570 ha         1 IOF       0.176000
     28 H091        -2.3350    -0.0010     3.2540 hn         1 IOF       0.318500
     29 H101        -4.6690    -0.8800     1.8890 h1         1 IOF       0.075200
     30 H102        -4.6670     0.8890     1.8900 h1         1 IOF       0.075200
     31 HP21         3.9800     2.0360     0.3660 hn         1 IOF       0.493133
     32 HP22         5.3330     1.6120     1.1780 hn         1 IOF       0.493133
     33 H161        -4.8450     2.1380     3.9600 ha         1 IOF       0.161500
     34 H201        -4.8550    -2.1300     3.9570 ha         1 IOF       0.161500
     35 HP23         3.9820     2.0390     1.9980 hn         1 IOF       0.493133
@<TRIPOS>BOND
     1     1     2 ar
     2     1     6 ar
     3     1    24 1
     4     2     3 ar
     5     2    25 1
     6     3     4 ar
     7     3    11 1
     8     4     5 ar
     9     4    26 1
    10     5     6 ar
    11     5    27 1
    12     6     7 1
    13     7     8 2
    14     7     9 1
    15     9    10 1
    16     9    28 1
    17    10    15 1
    18    10    29 1
    19    10    30 1
    20    11    12 1
    21    11    13 2
    22    11    14 2
    23    12    31 1
    24    12    32 1
    25    15    16 ar
    26    15    20 ar
    27    16    17 ar
    28    16    33 1
    29    17    18 ar
    30    17    21 1
    31    18    19 ar
    32    18    22 1
    33    19    20 ar
    34    19    23 1
    35    20    34 1
    36    35    12 1
@<TRIPOS>SUBSTRUCTURE
     1 IOF         1 TEMP              0 ****  ****    0 ROOT
