@<TRIPOS>MOLECULE
IOG
   78    82     1     0     0
SMALL
bcc


@<TRIPOS>ATOM
      1 C1           0.0000     0.0000     0.0000 ca         1 IOG      -0.106300
      2 C2           1.3870     0.0000     0.0000 ca         1 IOG      -0.076000
      3 C3           2.0720     0.0000     1.2150 ca         1 IOG      -0.135500
      4 C4           1.3630     0.0000     2.4150 ca         1 IOG       0.120100
      5 O5           2.0310    -0.0010     3.6010 oh         1 IOG      -0.500100
      6 C6          -0.0320     0.0010     2.4010 ca         1 IOG      -0.135500
      7 C7          -0.7180     0.0010     1.1860 ca         1 IOG      -0.076000
      8 C8          -0.7400    -0.0010    -1.3140 c3         1 IOG       0.030900
      9 C9          -1.0460     1.4040    -1.8570 c3         1 IOG      -0.033400
     10 C10         -1.8650     1.4190    -3.1590 c3         1 IOG       0.019700
     11 C11         -2.1830     2.8520    -3.5770 c3         1 IOG      -0.015100
     12 N12         -1.1650     0.7440    -4.2260 ns         1 IOG      -0.228900
     13 C13         -1.8250     0.0870    -5.2550 c          1 IOG       0.593100
     14 O14         -3.0460     0.0080    -5.3710 o          1 IOG      -0.617100
     15 C15         -0.8620    -0.5420    -6.2590 c3         1 IOG      -0.014200
     16 C16         -1.4110    -1.7120    -6.9790 cc         1 IOG      -0.109400
     17 C17         -1.3230    -3.0270    -6.5830 cd         1 IOG      -0.196300
     18 N18         -1.9550    -3.7930    -7.5250 na         1 IOG       0.373600
     19 C19         -2.4560    -2.9960    -8.5290 ca         1 IOG      -0.201200
     20 C20         -3.1680    -3.3370    -9.6840 ca         1 IOG      -0.205000
     21 C21         -3.5500    -2.2970   -10.5300 ca         1 IOG       0.159100
     22 C22         -3.2380    -0.9730   -10.2420 ca         1 IOG      -0.157000
     23 C23         -2.5250    -0.6460    -9.0820 ca         1 IOG      -0.004000
     24 C24         -2.1260    -1.6770    -8.2080 ca         1 IOG      -0.101800
     25 C25         -0.7050    -3.6170    -5.4180 ca         1 IOG      -0.039800
     26 C26         -1.4450    -3.7880    -4.2490 ca         1 IOG      -0.083500
     27 C27         -0.8480    -4.3560    -3.1240 ca         1 IOG      -0.106500
     28 C28          0.4880    -4.7550    -3.1690 ca         1 IOG      -0.095000
     29 C29          1.2280    -4.5830    -4.3390 ca         1 IOG      -0.106500
     30 C30          0.6310    -4.0140    -5.4650 ca         1 IOG      -0.083500
     31 O31         -4.2500    -2.5880   -11.6720 os         1 IOG      -0.315900
     32 C32         -5.0890    -3.7340   -11.6340 c3         1 IOG       0.191400
     33 C33         -6.2660    -3.5280   -12.5700 c3         1 IOG       0.139800
     34 N34         -7.1140    -4.7190   -12.5620 n3         1 IOG      -0.532600
     35 C35         -7.6520    -4.9580   -11.2160 c3         1 IOG       0.150300
     36 C36         -8.5020    -6.2300   -11.1790 c3         1 IOG      -0.022400
     37 C37         -9.6230    -6.1780   -12.2120 c3         1 IOG      -0.023400
     38 C38         -9.0620    -5.8470   -13.5900 c3         1 IOG      -0.022400
     39 C39         -8.1930    -4.5880   -13.5510 c3         1 IOG       0.150300
     40 H2           1.9330    -0.0000    -0.9360 ha         1 IOG       0.108000
     41 H3           3.1560     0.0000     1.2260 ha         1 IOG       0.113500
     42 HO5          2.1850    -0.8910     3.8740 ho         1 IOG       0.402000
     43 H6          -0.5830     0.0010     3.3340 ha         1 IOG       0.113500
     44 H7          -1.8010     0.0010     1.1700 ha         1 IOG       0.108000
     45 H81         -1.6750    -0.5310    -1.1830 hc         1 IOG       0.017200
     46 H82         -0.1420    -0.5300    -2.0460 hc         1 IOG       0.017200
     47 H91         -1.5960     1.9510    -1.1000 hc         1 IOG       0.020700
     48 H92         -0.1080     1.9140    -2.0360 hc         1 IOG       0.020700
     49 H10         -2.7990     0.8990    -2.9810 h1         1 IOG       0.047700
     50 H111        -2.7030     3.3560    -2.7720 hc         1 IOG       0.010367
     51 H112        -1.2610     3.3770    -3.7960 hc         1 IOG       0.010367
     52 H113        -2.8090     2.8400    -4.4610 hc         1 IOG       0.010367
     53 HN12        -0.1640     0.7510    -4.2250 hn         1 IOG       0.177500
     54 H151        -0.5860     0.2100    -6.9880 hc         1 IOG       0.026700
     55 H152         0.0310    -0.8530    -5.7300 hc         1 IOG       0.026700
     56 HN18        -2.0410    -4.7900    -7.4880 hn         1 IOG       0.114700
     57 H20         -3.4130    -4.3670    -9.9120 ha         1 IOG       0.121000
     58 H22         -3.5490    -0.1870   -10.9200 ha         1 IOG       0.116000
     59 H23         -2.2840     0.3860    -8.8600 ha         1 IOG       0.103000
     60 H26         -2.4830    -3.4780    -4.2140 ha         1 IOG       0.114000
     61 H27         -1.4230    -4.4890    -2.2150 ha         1 IOG       0.105500
     62 H28          0.9510    -5.1960    -2.2950 ha         1 IOG       0.104000
     63 H29          2.2650    -4.8920    -4.3750 ha         1 IOG       0.105500
     64 H30          1.2050    -3.8800    -6.3730 ha         1 IOG       0.114000
     65 H321        -5.4530    -3.8830   -10.6240 h1         1 IOG       0.010700
     66 H322        -4.5260    -4.6050   -11.9470 h1         1 IOG       0.010700
     67 H331        -6.8430    -2.6730   -12.2410 h1         1 IOG       0.017700
     68 H332        -5.9010    -3.3520   -13.5750 h1         1 IOG       0.017700
     69 H351        -8.2640    -4.1140   -10.9250 h1         1 IOG       0.009450
     70 H352        -6.8280    -5.0630   -10.5200 h1         1 IOG       0.009450
     71 H361        -7.8700    -7.0840   -11.3870 hc         1 IOG       0.016700
     72 H362        -8.9360    -6.3350   -10.1920 hc         1 IOG       0.016700
     73 H371       -10.3360    -5.4150   -11.9250 hc         1 IOG       0.012200
     74 H372       -10.1170    -7.1410   -12.2500 hc         1 IOG       0.012200
     75 H381        -8.4610    -6.6800   -13.9360 hc         1 IOG       0.016700
     76 H382        -9.8840    -5.6870   -14.2770 hc         1 IOG       0.016700
     77 H391        -8.8130    -3.7400   -13.2870 h1         1 IOG       0.009450
     78 H392        -7.7590    -4.4280   -14.5300 h1         1 IOG       0.009450
@<TRIPOS>BOND
     1     1     2 ar  
     2     1     7 ar  
     3     1     8 1   
     4     2     3 ar  
     5     2    40 1   
     6     3     4 ar  
     7     3    41 1   
     8     4     5 1   
     9     4     6 ar  
    10     5    42 1   
    11     6     7 ar  
    12     6    43 1   
    13     7    44 1   
    14     8     9 1   
    15     8    45 1   
    16     8    46 1   
    17     9    10 1   
    18     9    47 1   
    19     9    48 1   
    20    10    11 1   
    21    10    12 1   
    22    10    49 1   
    23    11    50 1   
    24    11    51 1   
    25    11    52 1   
    26    12    13 1   
    27    12    53 1   
    28    13    14 2   
    29    13    15 1   
    30    15    16 1   
    31    15    54 1   
    32    15    55 1   
    33    16    17 2   
    34    16    24 1   
    35    17    18 1   
    36    17    25 1   
    37    18    19 1   
    38    18    56 1   
    39    19    20 ar  
    40    19    24 ar  
    41    20    21 ar  
    42    20    57 1   
    43    21    22 ar  
    44    21    31 1   
    45    22    23 ar  
    46    22    58 1   
    47    23    24 ar  
    48    23    59 1   
    49    25    26 ar  
    50    25    30 ar  
    51    26    27 ar  
    52    26    60 1   
    53    27    28 ar  
    54    27    61 1   
    55    28    29 ar  
    56    28    62 1   
    57    29    30 ar  
    58    29    63 1   
    59    30    64 1   
    60    31    32 1   
    61    32    33 1   
    62    32    65 1   
    63    32    66 1   
    64    33    34 1   
    65    33    67 1   
    66    33    68 1   
    67    34    35 1   
    68    34    39 1   
    69    35    36 1   
    70    35    69 1   
    71    35    70 1   
    72    36    37 1   
    73    36    71 1   
    74    36    72 1   
    75    37    38 1   
    76    37    73 1   
    77    37    74 1   
    78    38    39 1   
    79    38    75 1   
    80    38    76 1   
    81    39    77 1   
    82    39    78 1   
@<TRIPOS>SUBSTRUCTURE
     1 IOG         1 TEMP              0 ****  ****    0 ROOT
