@<TRIPOS>MOLECULE
IOH
   12    11     1     0     0
SMALL
bcc


@<TRIPOS>ATOM
      1 CA         -0.0790   -0.0370    0.0450 c3        1 IOH      0.139100
      2 CB1         1.4340   -0.0320   -0.0810 c3        1 IOH     -0.111600
      3 CB2        -0.5160    0.0090    1.4980 c3        1 IOH     -0.111600
      4 O          -0.6510    1.1050   -0.5850 oh        1 IOH     -0.601800
      5 HA         -0.4930   -0.9640   -0.4470 h1        1 IOH      0.028700
      6 HB11        1.7350   -0.1010   -1.1540 hc        1 IOH      0.043367
      7 HB12        1.8660   -0.9000    0.4690 hc        1 IOH      0.043367
      8 HB13        1.8540    0.9110    0.3440 hc        1 IOH      0.043367
      9 HB21       -1.6300    0.0520    1.5590 hc        1 IOH      0.043367
     10 HB22       -0.1520   -0.9020    2.0260 hc        1 IOH      0.043367
     11 HB23       -0.1000    0.9160    1.9980 hc        1 IOH      0.043367
     12 H          -0.3030    1.1320   -1.4830 ho        1 IOH      0.397000
@<TRIPOS>BOND
     1    1    2 1   
     2    1    3 1   
     3    1    4 1   
     4    1    5 1   
     5    2    6 1   
     6    2    7 1   
     7    2    8 1   
     8    3    9 1   
     9    3   10 1   
    10    3   11 1   
    11    4   12 1   
@<TRIPOS>SUBSTRUCTURE
     1 IOH         1 TEMP              0 ****  ****    0 ROOT
