@<TRIPOS>MOLECULE
molecule
   12    11     1     0     0
SMALL
bcc


@<TRIPOS>ATOM
      1 CA           0.0000     0.0000     0.0000 c3         1 IOH       0.142100
      2 CB1          1.5300     0.0000     0.0000 c3         1 IOH      -0.103100
      3 CB2         -0.5100     0.0000     1.4420 c3         1 IOH      -0.103100
      4 O           -0.4760     1.1650    -0.6750 oh         1 IOH      -0.606800
      5 HA          -0.3610    -0.8850    -0.5100 h1         1 IOH       0.025700
      6 HB11         1.8910    -0.8740     0.5280 hc         1 IOH       0.041367
      7 HB12         1.8910     0.8940     0.4930 hc         1 IOH       0.041367
      8 HB13         1.8910    -0.0200    -1.0210 hc         1 IOH       0.041367
      9 HB21        -0.1330    -0.8750     1.9590 hc         1 IOH       0.041367
     10 HB22        -0.1650     0.8940     1.9470 hc         1 IOH       0.041367
     11 HB23        -1.5930    -0.0200     1.4420 hc         1 IOH       0.041367
     12 H           -1.0000     0.9080    -1.4150 ho         1 IOH       0.399000
@<TRIPOS>BOND
     1     1     2 1
     2     1     3 1
     3     1     4 1
     4     1     5 1
     5     2     6 1
     6     2     7 1
     7     2     8 1
     8     3     9 1
     9     3    10 1
    10     3    11 1
    11     4    12 1
@<TRIPOS>SUBSTRUCTURE
     1 IOH         1 TEMP              0 ****  ****    0 ROOT
