@<TRIPOS>MOLECULE
molecule
   56    59     1     0     0
SMALL
bcc


@<TRIPOS>ATOM
      1 C1           0.0000     0.0000     0.0000 ca         1 IOK      -0.088300
      2 C2           1.3870     0.0000     0.0000 ca         1 IOK      -0.113000
      3 C3           2.0720     0.0000     1.2150 ca         1 IOK      -0.151500
      4 C4           1.3620    -0.0000     2.4160 ca         1 IOK       0.097100
      5 O5           2.0300    -0.0020     3.6020 oh         1 IOK      -0.522100
      6 C6          -0.0330     0.0010     2.4010 ca         1 IOK      -0.151500
      7 C7          -0.7170     0.0010     1.1860 ca         1 IOK      -0.113000
      8 C8          -0.7400    -0.0000    -1.3150 c3         1 IOK      -0.037100
      9 C9          -1.0460     1.4030    -1.8570 c3         1 IOK      -0.087400
     10 C10         -1.8630     1.4180    -3.1600 c3         1 IOK       0.105700
     11 C11         -2.1810     2.8510    -3.5790 c3         1 IOK      -0.106100
     12 N12         -1.1630     0.7430    -4.2270 ns         1 IOK      -0.597900
     13 C13         -1.6850    -0.3660    -4.8780 c          1 IOK       0.668100
     14 O14         -2.7700    -0.8840    -4.6280 o          1 IOK      -0.580100
     15 C15         -0.7550    -0.8920    -5.9700 c3         1 IOK      -0.079200
     16 C16         -0.9130    -2.3330    -6.2610 cc         1 IOK      -0.126400
     17 C17         -0.2370    -3.3660    -5.6540 cd         1 IOK       0.006700
     18 N18         -0.6740    -4.5390    -6.2090 na         1 IOK      -0.168400
     19 C19         -1.6270    -4.2840    -7.1690 ca         1 IOK      -0.042200
     20 C20         -2.3450    -5.1650    -7.9860 ca         1 IOK      -0.147000
     21 C21         -3.2630    -4.6110    -8.8830 ca         1 IOK      -0.110000
     22 C22         -3.4530    -3.2330    -8.9580 ca         1 IOK      -0.157000
     23 C23         -2.7280    -2.3650    -8.1350 ca         1 IOK      -0.074000
     24 C24         -1.7960    -2.8990    -7.2220 ca         1 IOK      -0.076800
     25 C25          0.7680    -3.3480    -4.6170 ca         1 IOK      -0.059800
     26 C26          0.3870    -3.4130    -3.2770 ca         1 IOK      -0.104500
     27 C27          1.3570    -3.3960    -2.2760 ca         1 IOK      -0.136000
     28 C28          2.7080    -3.3130    -2.6140 ca         1 IOK      -0.119000
     29 C29          3.0880    -3.2490    -3.9550 ca         1 IOK      -0.136000
     30 C30          2.1170    -3.2660    -4.9570 ca         1 IOK      -0.104500
     31 H2           1.9340    -0.0000    -0.9350 ha         1 IOK       0.137000
     32 H3           3.1560     0.0000     1.2260 ha         1 IOK       0.139500
     33 HO5          2.1860     0.8870     3.8760 ho         1 IOK       0.418000
     34 H6          -0.5850     0.0010     3.3340 ha         1 IOK       0.139500
     35 H7          -1.8010     0.0010     1.1680 ha         1 IOK       0.137000
     36 H81         -1.6760    -0.5300    -1.1830 hc         1 IOK       0.053200
     37 H82         -0.1430    -0.5310    -2.0460 hc         1 IOK       0.053200
     38 H91         -0.1070     1.9130    -2.0360 hc         1 IOK       0.043700
     39 H92         -1.5960     1.9510    -1.1010 hc         1 IOK       0.043700
     40 H10         -2.7970     0.8990    -2.9820 h1         1 IOK       0.081700
     41 H111        -1.2590     3.4100    -3.6850 hc         1 IOK       0.040700
     42 H112        -2.8020     3.3190    -2.8250 hc         1 IOK       0.040700
     43 H113        -2.7080     2.8420    -4.5250 hc         1 IOK       0.040700
     44 HN12        -0.2670     1.0890    -4.5090 hn         1 IOK       0.311500
     45 H151         0.2690    -0.7140    -5.6630 hc         1 IOK       0.061200
     46 H152        -0.9440    -0.3350    -6.8790 hc         1 IOK       0.061200
     47 HN18        -0.3480    -5.4500    -5.9540 hn         1 IOK       0.297700
     48 H20         -2.1940    -6.2360    -7.9260 ha         1 IOK       0.131000
     49 H21         -3.8350    -5.2640    -9.5310 ha         1 IOK       0.128000
     50 H22         -4.1700    -2.8290    -9.6620 ha         1 IOK       0.129000
     51 H23         -2.8810    -1.2940    -8.1980 ha         1 IOK       0.131000
     52 H26         -0.6620    -3.4770    -3.0150 ha         1 IOK       0.143000
     53 H27          1.0620    -3.4460    -1.2350 ha         1 IOK       0.136500
     54 H28          3.4610    -3.3000    -1.8360 ha         1 IOK       0.134000
     55 H29          4.1370    -3.1850    -4.2180 ha         1 IOK       0.136500
     56 H30          2.4120    -3.2160    -5.9980 ha         1 IOK       0.143000
@<TRIPOS>BOND
     1     1     7 ar
     2     1     8 1
     3     1     2 ar
     4     2     3 ar
     5     2    31 1
     6     3     4 ar
     7     3    32 1
     8     4     6 ar
     9     4     5 1
    10     5    33 1
    11     6     7 ar
    12     6    34 1
    13     7    35 1
    14     8     9 1
    15     8    36 1
    16     8    37 1
    17     9    10 1
    18     9    38 1
    19     9    39 1
    20    10    11 1
    21    10    12 1
    22    10    40 1
    23    11    41 1
    24    11    42 1
    25    11    43 1
    26    12    13 1
    27    12    44 1
    28    13    14 2
    29    13    15 1
    30    15    16 1
    31    15    45 1
    32    15    46 1
    33    16    24 1
    34    16    17 2
    35    17    18 1
    36    17    25 1
    37    18    19 1
    38    18    47 1
    39    19    24 ar
    40    19    20 ar
    41    20    21 ar
    42    20    48 1
    43    21    22 ar
    44    21    49 1
    45    22    23 ar
    46    22    50 1
    47    23    24 ar
    48    23    51 1
    49    25    26 ar
    50    25    30 ar
    51    26    27 ar
    52    26    52 1
    53    27    28 ar
    54    27    53 1
    55    28    29 ar
    56    28    54 1
    57    29    30 ar
    58    29    55 1
    59    30    56 1
@<TRIPOS>SUBSTRUCTURE
     1 IOK         1 TEMP              0 ****  ****    0 ROOT
