@<TRIPOS>MOLECULE
IOL
   13    13     1     0     0
SMALL
bcc


@<TRIPOS>ATOM
      1 C2         -0.0460   -0.0660   -0.0390 ca        1 IOL     -0.059000
      2 C3          1.3410    0.0110   -0.0920 ca        1 IOL     -0.191000
      3 C4          2.0640    0.1310    1.1080 ca        1 IOL      0.142100
      4 O4          3.4310    0.2020    0.9950 oh        1 IOL     -0.493100
      5 C5          1.4010    0.1740    2.3430 ca        1 IOL     -0.191000
      6 C6          0.0100    0.0960    2.3720 ca        1 IOL     -0.059000
      7 C1         -0.7150   -0.0240    1.1870 ca        1 IOL     -0.016100
      8 I1         -2.7300   -0.1360    1.2420 i         1 IOL     -0.142900
      9 H2         -0.6130   -0.1600   -0.9800 ha        1 IOL      0.146000
     10 H3          1.8790   -0.0210   -1.0500 ha        1 IOL      0.147500
     11 HO4         3.8020    0.2820    1.8870 ho        1 IOL      0.422000
     12 H5          1.9710    0.2680    3.2770 ha        1 IOL      0.147500
     13 H6         -0.5070    0.1300    3.3440 ha        1 IOL      0.146000
@<TRIPOS>BOND
     1    1    2 ar  
     2    1    7 ar  
     3    1    9 1   
     4    2    3 ar  
     5    2   10 1   
     6    3    4 1   
     7    3    5 ar  
     8    4   11 1   
     9    5    6 ar  
    10    5   12 1   
    11    6    7 ar  
    12    6   13 1   
    13    7    8 1   
@<TRIPOS>SUBSTRUCTURE
     1 IOL         1 TEMP              0 ****  ****    0 ROOT
