@<TRIPOS>MOLECULE
molecule
   13    13     1     0     0
SMALL
bcc


@<TRIPOS>ATOM
      1 C2           0.0000     0.0000     0.0000 ca         1 IOL      -0.085000
      2 C3           1.3820     0.0000     0.0000 ca         1 IOL      -0.155000
      3 C4           2.0740     0.0000     1.2010 ca         1 IOL       0.121100
      4 O4           3.4330    -0.0000     1.2030 oh         1 IOL      -0.521100
      5 C5           1.3790    -0.0040     2.4000 ca         1 IOL      -0.155000
      6 C6          -0.0030     0.0020     2.3960 ca         1 IOL      -0.085000
      7 C1          -0.6920     0.0020     1.1970 ca         1 IOL       0.042900
      8 I1          -2.7860     0.0020     1.1940 i          1 IOL      -0.167900
      9 H2          -0.5410     0.0000    -0.9380 ha         1 IOL       0.145000
     10 H3           1.9240    -0.0020    -0.9380 ha         1 IOL       0.146000
     11 HO4          3.7480     0.8890     1.2040 ho         1 IOL       0.423000
     12 H5           1.9180    -0.0040     3.3400 ha         1 IOL       0.146000
     13 H6          -0.5480     0.0010     3.3330 ha         1 IOL       0.145000
@<TRIPOS>BOND
     1     1     2 ar
     2     1     7 ar
     3     1     9 1
     4     2     3 ar
     5     2    10 1
     6     3     4 1
     7     3     5 ar
     8     4    11 1
     9     5     6 ar
    10     5    12 1
    11     6     7 ar
    12     6    13 1
    13     7     8 1
@<TRIPOS>SUBSTRUCTURE
     1 IOL         1 TEMP              0 ****  ****    0 ROOT
