@<TRIPOS>MOLECULE
IOM
   22    19     1     0     0
SMALL
bcc


@<TRIPOS>ATOM
      1 NA        -60.1680  201.6510  218.6400 n4        1 IOM      0.101000
      2 CA        -59.1290  202.5530  219.0000 c2        1 IOM     -0.786000
      3 NB        -59.2390  203.5150  220.0420 n4        1 IOM      0.101000
      4 NC         51.7380 -171.0350 -183.9040 n3        1 IOM     -0.083000
      5 CB         50.5050 -171.7850 -184.0410 c3        1 IOM     -0.164000
      6 CC         52.7110 -171.0410 -184.7590 c2        1 IOM      0.078000
      7 CD         54.1660 -168.4480 -181.8490 c1        1 IOM      0.454000
      8 O1         54.7470 -167.6990 -181.1470 o         1 IOM     -0.225500
      9 O2         53.5780 -169.2110 -182.5660 o         1 IOM     -0.225500
     10 HNA1      -60.4270  201.0250  219.4110 hn        1 IOM      0.225000
     11 HNA2      -61.0150  202.1370  218.3230 hn        1 IOM      0.225000
     12 HCA       -58.1880  202.5040  218.4430 hx        1 IOM      0.234000
     13 HNB1      -59.9900  204.1940  219.8700 hn        1 IOM      0.225000
     14 HNB2      -59.4020  203.0830  220.9590 hn        1 IOM      0.225000
     15 HCB1       50.4040 -172.4820 -183.1620 h1        1 IOM      0.150667
     16 HCB2       49.6400 -171.0640 -184.0430 h1        1 IOM      0.150667
     17 HCB3       50.4970 -172.3800 -184.9930 h1        1 IOM      0.150667
     18 HCC1       53.6240 -170.4300 -184.5690 h4        1 IOM      0.208000
     19 HCC2       52.6600 -171.6470 -185.6910 h4        1 IOM      0.208000
     20 HA3       -59.8030  201.0860  217.8650 hn        1 IOM      0.225000
     21 HB3       -58.3430  204.0160  220.0690 hn        1 IOM      0.225000
     22 HC1        51.8100 -170.4720 -183.0610 hn        1 IOM      0.297000
@<TRIPOS>BOND
     1    1    2 1   
     2    1   10 1   
     3    1   11 1   
     4    1   20 1   
     5    2    3 1   
     6    2   12 1   
     7    3   13 1   
     8    3   14 1   
     9    3   21 1   
    10    4    5 1   
    11    4    6 1   
    12    4   22 1   
    13    5   15 1   
    14    5   16 1   
    15    5   17 1   
    16    6   18 1   
    17    6   19 1   
    18    7    8 1   
    19    7    9 1   
@<TRIPOS>SUBSTRUCTURE
     1 IOM         1 TEMP              0 ****  ****    0 ROOT
