@<TRIPOS>MOLECULE
ION
   39    40     1     0     0
SMALL
bcc


@<TRIPOS>ATOM
      1 C1          0.0050    0.0650   -0.0200 c3        1 ION     -0.066400
      2 C2          1.5380   -0.0410   -0.0310 c3        1 ION      0.000200
      3 C3          2.0260   -0.0620    1.4350 c3        1 ION     -0.053700
      4 C4          1.5530   -1.2880    2.1880 c3        1 ION     -0.091100
      5 C5          3.5400    0.0460    1.5440 c3        1 ION     -0.074400
      6 C6          4.0580    1.2840    0.8480 c3        1 ION     -0.072400
      7 C7          3.6210    1.3090   -0.6020 c3        1 ION     -0.040200
      8 C8          2.1450    1.1460   -0.7370 c2        1 ION     -0.105400
      9 C9          1.9460   -1.3140   -0.7650 c3        1 ION     -0.082100
     10 C10         1.4280    2.0030   -1.4780 c2        1 ION     -0.173200
     11 C11        -0.0330    1.9050   -1.6980 c3        1 ION     -0.037200
     12 C12        -0.5570    0.5140   -1.3610 c3        1 ION     -0.029500
     13 C13        -2.0550    0.4890   -1.3730 c2        1 ION     -0.108400
     14 C14        -2.7530    1.0590   -0.1950 c3        1 ION     -0.060900
     15 C15        -2.7290   -0.0310   -2.4050 c2        1 ION     -0.228000
     16 H11        -0.4330   -0.9320    0.2450 hc        1 ION      0.045200
     17 H12        -0.3080    0.7960    0.7700 hc        1 ION      0.045200
     18 H3          1.5860    0.8490    1.9360 hc        1 ION      0.048700
     19 H41         0.4420   -1.3800    2.1430 hc        1 ION      0.034367
     20 H42         1.8550   -1.2110    3.2620 hc        1 ION      0.034367
     21 H43         2.0060   -2.2160    1.7640 hc        1 ION      0.034367
     22 H51         3.8250    0.0800    2.6290 hc        1 ION      0.040200
     23 H52         4.0200   -0.8670    1.1040 hc        1 ION      0.040200
     24 H61         5.1780    1.3080    0.9020 hc        1 ION      0.040700
     25 H62         3.6750    2.1990    1.3720 hc        1 ION      0.040700
     26 H71         3.9560    2.2710   -1.0740 hc        1 ION      0.045200
     27 H72         4.1250    0.4710   -1.1590 hc        1 ION      0.045200
     28 H91         1.6970   -1.2300   -1.8510 hc        1 ION      0.036700
     29 H92         1.4050   -2.1960   -0.3450 hc        1 ION      0.036700
     30 H93         3.0440   -1.4900   -0.6700 hc        1 ION      0.036700
     31 H10         1.9150    2.8600   -1.9730 ha        1 ION      0.120000
     32 H111       -0.2740    2.1440   -2.7680 hc        1 ION      0.049700
     33 H112       -0.5500    2.6750   -1.0620 hc        1 ION      0.049700
     34 H121       -0.1810   -0.1970   -2.1530 hc        1 ION      0.055700
     35 H141       -2.6260    0.3810    0.6880 hc        1 ION      0.041367
     36 H142       -2.3280    2.0590    0.0700 hc        1 ION      0.041367
     37 H143       -3.8470    1.1800   -0.3890 hc        1 ION      0.041367
     38 H151       -2.2280   -0.4650   -3.2790 ha        1 ION      0.111500
     39 H152       -3.8260   -0.0520   -2.4380 ha        1 ION      0.111500
@<TRIPOS>BOND
     1    1    2 1   
     2    1   12 1   
     3    1   16 1   
     4    1   17 1   
     5    2    3 1   
     6    2    8 1   
     7    2    9 1   
     8    3    4 1   
     9    3    5 1   
    10    3   18 1   
    11    4   19 1   
    12    4   20 1   
    13    4   21 1   
    14    5    6 1   
    15    5   22 1   
    16    5   23 1   
    17    6    7 1   
    18    6   24 1   
    19    6   25 1   
    20    7    8 1   
    21    7   26 1   
    22    7   27 1   
    23    8   10 2   
    24    9   28 1   
    25    9   29 1   
    26    9   30 1   
    27   10   11 1   
    28   10   31 1   
    29   11   12 1   
    30   11   32 1   
    31   11   33 1   
    32   12   13 1   
    33   12   34 1   
    34   13   14 1   
    35   13   15 2   
    36   14   35 1   
    37   14   36 1   
    38   14   37 1   
    39   15   38 1   
    40   15   39 1   
@<TRIPOS>SUBSTRUCTURE
     1 ION         1 TEMP              0 ****  ****    0 ROOT
