@<TRIPOS>MOLECULE
molecule
   39    40     1     0     0
SMALL
bcc


@<TRIPOS>ATOM
      1 C1           0.0000     0.0000     0.0000 c3         1 ION      -0.061400
      2 C2           1.5180     0.0000     0.0000 c3         1 ION      -0.011800
      3 C3           2.0430     0.0000     1.4380 c3         1 ION      -0.057700
      4 C4           1.5610    -1.2600     2.1580 c3         1 ION      -0.092100
      5 C5           3.5730     0.0240     1.4200 c3         1 ION      -0.078400
      6 C6           4.0610     1.3150     0.7630 c3         1 ION      -0.077400
      7 C7           3.6120     1.3440    -0.7010 c3         1 ION      -0.040200
      8 C8           2.1040     1.1630    -0.7440 c2         1 ION      -0.108400
      9 C9           1.9980    -1.2820    -0.6840 c3         1 ION      -0.086100
     10 C10          1.4010     2.0190    -1.4240 c2         1 ION      -0.176200
     11 C11         -0.0950     1.9470    -1.5340 c3         1 ION      -0.035200
     12 C12         -0.5410     0.4950    -1.3400 c3         1 ION      -0.029500
     13 C13         -2.0460     0.4220    -1.3410 c2         1 ION      -0.121400
     14 C14         -2.8370     1.1820    -0.3080 c3         1 ION      -0.054900
     15 C15         -2.6660    -0.3030    -2.2390 c2         1 ION      -0.228000
     16 H11         -0.3550     0.6520     0.7890 hc         1 ION       0.047200
     17 H12         -0.3550    -1.0080     0.1760 hc         1 ION       0.047200
     18 H3           1.6760     0.8790     1.9540 hc         1 ION       0.053700
     19 H41          1.8190    -1.1970     3.2090 hc         1 ION       0.035033
     20 H42          2.0360    -2.1300     1.7220 hc         1 ION       0.035033
     21 H43          0.4860    -1.3460     2.0560 hc         1 ION       0.035033
     22 H51          3.9440    -0.0230     2.4370 hc         1 ION       0.043700
     23 H52          3.9390    -0.8260     0.8570 hc         1 ION       0.043700
     24 H61          5.1420     1.3550     0.8090 hc         1 ION       0.041700
     25 H62          3.6400     2.1660     1.2850 hc         1 ION       0.041700
     26 H71          4.0910     0.5380    -1.2440 hc         1 ION       0.046200
     27 H72          3.8770     2.2970    -1.1430 hc         1 ION       0.046200
     28 H91          1.7270    -1.2550    -1.7330 hc         1 ION       0.036700
     29 H92          3.0740    -1.3600    -0.5910 hc         1 ION       0.036700
     30 H93          1.5320    -2.1390    -0.2130 hc         1 ION       0.036700
     31 H10          1.9190     2.8210    -1.9350 ha         1 ION       0.120000
     32 H111        -0.4020     2.2920    -2.5150 hc         1 ION       0.050700
     33 H112        -0.5440     2.5680    -0.7690 hc         1 ION       0.050700
     34 H121        -0.1410    -0.1170    -2.1400 hc         1 ION       0.060700
     35 H141        -3.3600     0.4830     0.3330 hc         1 ION       0.041367
     36 H142        -2.1650     1.7870     0.2890 hc         1 ION       0.041367
     37 H143        -3.5550     1.8240    -0.8040 hc         1 ION       0.041367
     38 H151        -3.7490    -0.3560    -2.2390 ha         1 ION       0.112500
     39 H152        -2.0970    -0.8500    -2.9810 ha         1 ION       0.112500
@<TRIPOS>BOND
     1     1     2 1
     2     1    12 1
     3     1    16 1
     4     1    17 1
     5     2     3 1
     6     2     8 1
     7     2     9 1
     8     3     4 1
     9     3     5 1
    10     3    18 1
    11     4    19 1
    12     4    20 1
    13     4    21 1
    14     5     6 1
    15     5    22 1
    16     5    23 1
    17     6     7 1
    18     6    24 1
    19     6    25 1
    20     7     8 1
    21     7    26 1
    22     7    27 1
    23     8    10 2
    24     9    28 1
    25     9    29 1
    26     9    30 1
    27    10    11 1
    28    10    31 1
    29    11    12 1
    30    11    32 1
    31    11    33 1
    32    12    13 1
    33    12    34 1
    34    13    14 1
    35    13    15 2
    36    14    35 1
    37    14    36 1
    38    14    37 1
    39    15    38 1
    40    15    39 1
@<TRIPOS>SUBSTRUCTURE
     1 ION         1 TEMP              0 ****  ****    0 ROOT
