@<TRIPOS>MOLECULE
IOP
   24    25     1     0     0
SMALL
bcc


@<TRIPOS>ATOM
      1 C1'         0.2120    0.5000    0.0440 c         1 IOP      0.906600
      2 O1          1.4490    0.7050   -0.1290 o         1 IOP     -0.849800
      3 O2         -0.3380    0.4240    1.1800 o         1 IOP     -0.849800
      4 C2'        -0.6920    0.3630   -1.1950 c3        1 IOP     -0.190400
      5 C3'         0.0060   -0.3900   -2.3060 c3        1 IOP     -0.018200
      6 N1         -1.6140    0.6390   -5.5060 na        1 IOP     -0.197400
      7 C2         -1.0910    0.9080   -4.2240 cc        1 IOP     -0.141100
      8 C3         -0.6640   -0.2650   -3.6100 cd        1 IOP     -0.076400
      9 C3A        -0.9880   -1.3520   -4.5200 ca        1 IOP     -0.089800
     10 C4         -0.8140   -2.7330   -4.4770 ca        1 IOP     -0.073000
     11 C5         -1.2630   -3.5030   -5.5440 ca        1 IOP     -0.176000
     12 C6         -1.8810   -2.9140   -6.6580 ca        1 IOP     -0.125000
     13 C7         -2.0670   -1.5410   -6.7440 ca        1 IOP     -0.159000
     14 C7A        -1.6210   -0.7510   -5.6760 ca        1 IOP     -0.056200
     15 H2'1       -0.9550    1.3960   -1.5360 hc        1 IOP      0.021700
     16 H2'2       -1.6390   -0.1550   -0.9050 hc        1 IOP      0.021700
     17 H3'1        0.0810   -1.4760   -2.0270 hc        1 IOP      0.060700
     18 H3'2        1.0600    0.0020   -2.3840 hc        1 IOP      0.060700
     19 H4         -0.3300   -3.1980   -3.6060 ha        1 IOP      0.140000
     20 H5         -1.1350   -4.5940   -5.5190 ha        1 IOP      0.117000
     21 H6         -2.2260   -3.5570   -7.4810 ha        1 IOP      0.112000
     22 H7         -2.5470   -1.0890   -7.6210 ha        1 IOP      0.118000
     23 HN1        -2.2510    1.2360   -5.9640 hn        1 IOP      0.273700
     24 H2         -1.0270    1.9340   -3.8590 h4        1 IOP      0.170000
@<TRIPOS>BOND
     1    1    2 1   
     2    1    3 1   
     3    1    4 1   
     4    4    5 1   
     5    4   15 1   
     6    4   16 1   
     7    5    8 1   
     8    5   17 1   
     9    5   18 1   
    10    6    7 1   
    11    6   14 1   
    12    6   23 1   
    13    7    8 2   
    14    7   24 1   
    15    8    9 1   
    16    9   10 ar  
    17    9   14 ar  
    18   10   11 ar  
    19   10   19 1   
    20   11   12 ar  
    21   11   20 1   
    22   12   13 ar  
    23   12   21 1   
    24   13   14 ar  
    25   13   22 1   
@<TRIPOS>SUBSTRUCTURE
     1 IOP         1 TEMP              0 ****  ****    0 ROOT
