@<TRIPOS>MOLECULE
molecule
   24    25     1     0     0
SMALL
bcc


@<TRIPOS>ATOM
      1 C1'          0.0000     0.0000     0.0000 c          1 IOP       0.889600
      2 O1           1.2070     0.0000     0.0000 o          1 IOP      -0.856300
      3 O2          -0.6710     0.0000     1.1630 o          1 IOP      -0.856300
      4 C2'         -0.7540     0.0000    -1.3050 c3         1 IOP      -0.179400
      5 C3'          0.2380     0.0000    -2.4670 c3         1 IOP       0.000800
      6 N1          -1.5710     0.6910    -5.5980 na         1 IOP      -0.194400
      7 C2          -0.9150     1.0810    -4.4620 cc         1 IOP      -0.134100
      8 C3          -0.5160     0.0020    -3.7720 cd         1 IOP      -0.108400
      9 C3A         -0.9470    -1.1750    -4.5290 ca         1 IOP      -0.097800
     10 C4          -0.8380    -2.5520    -4.3280 ca         1 IOP      -0.059000
     11 C5          -1.3670    -3.4160    -5.2460 ca         1 IOP      -0.179000
     12 C6          -2.0180    -2.9350    -6.3740 ca         1 IOP      -0.119000
     13 C7          -2.1420    -1.5800    -6.5890 ca         1 IOP      -0.160000
     14 C7A         -1.6110    -0.6830    -5.6680 ca         1 IOP      -0.043200
     15 H2'1        -1.3770    -0.8840    -1.3620 hc         1 IOP       0.031700
     16 H2'2        -1.3770     0.8850    -1.3620 hc         1 IOP       0.031700
     17 H3'1         0.8620     0.8840    -2.4100 hc         1 IOP       0.053200
     18 H3'2         0.8610    -0.8850    -2.4110 hc         1 IOP       0.053200
     19 H4          -0.3310    -2.9340    -3.4500 ha         1 IOP       0.142000
     20 H5          -1.2770    -4.4840    -5.0910 ha         1 IOP       0.118000
     21 H6          -2.4320    -3.6320    -7.0920 ha         1 IOP       0.113000
     22 H7          -2.6520    -1.2150    -7.4720 ha         1 IOP       0.110000
     23 HN1         -1.9630     1.3130    -6.2780 hn         1 IOP       0.280700
     24 H2          -0.7440     2.1090    -4.1640 h4         1 IOP       0.165000
@<TRIPOS>BOND
     1     1     2 1
     2     1     3 1
     3     1     4 1
     4     4     5 1
     5     4    15 1
     6     4    16 1
     7     5     8 1
     8     5    17 1
     9     5    18 1
    10     6     7 1
    11     6    14 1
    12     6    23 1
    13     7     8 2
    14     7    24 1
    15     8     9 1
    16     9    10 ar
    17     9    14 ar
    18    10    11 ar
    19    10    19 1
    20    11    12 ar
    21    11    20 1
    22    12    13 ar
    23    12    21 1
    24    13    14 ar
    25    13    22 1
@<TRIPOS>SUBSTRUCTURE
     1 IOP         1 TEMP              0 ****  ****    0 ROOT
