@<TRIPOS>MOLECULE
IOS
   20    21     1     0     0
SMALL
bcc


@<TRIPOS>ATOM
      1 O1          0.1360    0.0940    0.0040 os        1 IOS     -0.496800
      2 N1          3.5960   -0.2960    0.8850 na        1 IOS     -0.168400
      3 C1          2.5440   -0.1030   -0.0580 cc        1 IOS     -0.274100
      4 C2          1.3230    0.0610    0.5900 cd        1 IOS      0.239900
      5 C3          1.5990    0.0710    2.0330 ca        1 IOS     -0.130800
      6 C4          0.8050    0.2010    3.1650 ca        1 IOS     -0.058000
      7 C5          1.4190    0.1760    4.4160 ca        1 IOS     -0.185000
      8 C6          2.8050    0.0250    4.5420 ca        1 IOS     -0.124000
      9 C7          3.6270   -0.1080    3.4270 ca        1 IOS     -0.171000
     10 C8          3.0270   -0.0890    2.1630 ca        1 IOS     -0.055200
     11 S          -1.1120    1.3460    0.1020 s6        1 IOS      1.714300
     12 O2         -1.9740    0.8750   -0.8740 o         1 IOS     -0.737200
     13 O3         -1.5350    1.2170    1.4180 o         1 IOS     -0.737200
     14 O4         -0.3990    2.4950   -0.2000 o         1 IOS     -0.737200
     15 H4         -0.2870    0.3410    3.0550 ha        1 IOS      0.187000
     16 H5          0.8050    0.2820    5.3220 ha        1 IOS      0.115000
     17 H6          3.2560    0.0160    5.5440 ha        1 IOS      0.105000
     18 H7          4.7120   -0.2250    3.5370 ha        1 IOS      0.113000
     19 H1          4.4670    0.1410    0.6940 hn        1 IOS      0.241700
     20 HA          2.7480   -0.1670   -1.1240 h4        1 IOS      0.159000
@<TRIPOS>BOND
     1    1    4 1   
     2    1   11 1   
     3    2    3 1   
     4    2   10 1   
     5    2   19 1   
     6    3    4 2   
     7    3   20 1   
     8    4    5 1   
     9    5    6 ar  
    10    5   10 ar  
    11    6    7 ar  
    12    6   15 1   
    13    7    8 ar  
    14    7   16 1   
    15    8    9 ar  
    16    8   17 1   
    17    9   10 ar  
    18    9   18 1   
    19   11   12 1   
    20   11   13 1   
    21   11   14 1   
@<TRIPOS>SUBSTRUCTURE
     1 IOS         1 TEMP              0 ****  ****    0 ROOT
