@<TRIPOS>MOLECULE
molecule
   20    21     1     0     0
SMALL
bcc


@<TRIPOS>ATOM
      1 O1           0.0000     0.0000     0.0000 os         1 IOS      -0.524800
      2 N1           3.5020     0.0000     0.9180 na         1 IOS      -0.208400
      3 C1           2.4130     0.0000     0.0000 cc         1 IOS      -0.138100
      4 C2           1.2470    -0.0020     0.6660 cd         1 IOS       0.143900
      5 C3           1.5050    -0.0040     2.0750 ca         1 IOS      -0.105800
      6 C4           0.7250    -0.0100     3.2610 ca         1 IOS      -0.012000
      7 C5           1.3930    -0.0090     4.5100 ca         1 IOS      -0.199000
      8 C6           2.8280    -0.0020     4.5760 ca         1 IOS      -0.105000
      9 C7           3.6240     0.0020     3.4360 ca         1 IOS      -0.184000
     10 C8           2.9480    -0.0010     2.1760 ca         1 IOS      -0.029200
     11 S           -0.8030     1.2480    -0.0400 s6         1 IOS       1.535300
     12 O2          -2.0360     1.1250    -0.7670 o          1 IOS      -0.722867
     13 O3          -1.1030     1.7040     1.3200 o          1 IOS      -0.722867
     14 O4          -0.1370     2.3240    -0.7890 o          1 IOS      -0.722867
     15 H4          -0.3570    -0.0160     3.2130 ha         1 IOS       0.169000
     16 H5           0.8150    -0.0120     5.4260 ha         1 IOS       0.123000
     17 H6           3.3060    -0.0010     5.5480 ha         1 IOS       0.109000
     18 H7           4.7050     0.0080     3.5000 ha         1 IOS       0.119000
     19 H1           4.4770     0.0010     0.6910 hn         1 IOS       0.297700
     20 HA           2.5110     0.0010    -1.0790 h4         1 IOS       0.177000
@<TRIPOS>BOND
     1     1     4 1
     2     1    11 1
     3     2     3 1
     4     2    10 1
     5     2    19 1
     6     3     4 2
     7     3    20 1
     8     4     5 1
     9     5     6 ar
    10     5    10 ar
    11     6     7 ar
    12     6    15 1
    13     7     8 ar
    14     7    16 1
    15     8     9 ar
    16     8    17 1
    17     9    10 ar
    18     9    18 1
    19    11    12 1
    20    11    13 1
    21    11    14 1
@<TRIPOS>SUBSTRUCTURE
     1 IOS         1 TEMP              0 ****  ****    0 ROOT
