@<TRIPOS>MOLECULE
IOT
   65    67     1     0     0
SMALL
bcc


@<TRIPOS>ATOM
      1 PA           0.0000     0.0000     0.0000 p5         1 IOT       0.914800
      2 O1A          1.6090     0.0000     0.0000 o          1 IOT      -0.657000
      3 O2A         -0.4940     0.0000     1.3950 o          1 IOT      -0.657000
      4 O5'         -0.5360    -1.3140    -0.7580 os         1 IOT      -0.459200
      5 C5'         -0.0310    -2.4410    -0.0410 c3         1 IOT       0.247400
      6 C4'         -0.5060    -3.7300    -0.7140 c3         1 IOT       0.144100
      7 O4'          0.0030    -3.7970    -2.0570 os         1 IOT      -0.368600
      8 C3'          0.0410    -4.9520     0.0480 c3         1 IOT       0.129100
      9 O3'         -1.0270    -5.7620     0.5420 oh         1 IOT      -0.564800
     10 C2'          0.8600    -5.7250    -1.0190 c3         1 IOT       0.123100
     11 O2'          0.6530    -7.1330    -0.8980 oh         1 IOT      -0.552800
     12 C1'          0.2570    -5.1890    -2.3420 c3         1 IOT       0.136800
     13 N9           1.2160    -5.3230    -3.4420 na         1 IOT       0.216000
     14 C8           2.1940    -4.4350    -3.7710 cc         1 IOT       0.296700
     15 N7           2.8620    -4.8690    -4.7990 nd         1 IOT      -0.516100
     16 C5           2.3540    -6.0600    -5.1960 ca         1 IOT      -0.180200
     17 C6           2.6610    -6.9730    -6.2190 ca         1 IOT       0.584200
     18 N6           3.6960    -6.7270    -7.1030 nv         1 IOT      -0.643500
     19 N1           1.9320    -8.0800    -6.3180 nb         1 IOT      -0.670000
     20 C2           0.9410    -8.3250    -5.4800 ca         1 IOT       0.613900
     21 N3           0.6200    -7.4980    -4.5080 nb         1 IOT      -0.598000
     22 C4           1.2960    -6.3690    -4.3260 ca         1 IOT       0.223800
     23 CX          -0.7130     3.7640    -1.0100 c3         1 IOT       0.077800
     24 CW          -0.2120     2.5340    -0.3000 c          1 IOT       0.758100
     25 OX1          0.4830     2.6440     0.6820 o          1 IOT      -0.574000
     26 OX2         -0.5360     1.3150    -0.7580 os         1 IOT      -0.474500
     27 NX          -0.2240     4.9630    -0.3180 n7         1 IOT      -0.609200
     28 CA          -0.7450     6.1200    -1.0560 c3         1 IOT      -0.002500
     29 CB          -0.9480     7.2920    -0.0930 c3         1 IOT       0.010600
     30 CG          -1.9440     6.8910     0.9960 c3         1 IOT      -0.045400
     31 CD          -2.1460     8.0630     1.9590 c3         1 IOT       0.147800
     32 NE          -3.1010     7.6790     3.0010 nu         1 IOT      -0.450200
     33 CZ          -3.4410     8.5750     3.9860 c2         1 IOT       0.239100
     34 NH1         -2.9150     9.7680     3.9920 n2         1 IOT      -0.687100
     35 NH2         -4.3360     8.2140     4.9650 nz         1 IOT       0.196400
     36 C            0.2360     6.5160    -2.1290 c          1 IOT       0.954600
     37 O            1.5490     6.3020    -1.9490 o          1 IOT      -0.878300
     38 OX3         -0.1580     7.0250    -3.1510 o          1 IOT      -0.878300
     39 H5'1         1.0520    -2.4130    -0.0410 h1         1 IOT       0.016700
     40 H5'2        -0.3930    -2.4120     0.9790 h1         1 IOT       0.016700
     41 H4'         -1.5890    -3.7640    -0.7320 h1         1 IOT       0.037700
     42 H3'          0.6860    -4.6330     0.8570 h1         1 IOT       0.022700
     43 HO'3        -0.9770    -5.8090     1.4820 ho         1 IOT       0.384000
     44 H2'          1.9110    -5.4750    -0.9490 h1         1 IOT       0.023700
     45 HO'2         1.3870    -7.5210    -0.4510 ho         1 IOT       0.382000
     46 H1'         -0.6680    -5.7030    -2.5710 h2         1 IOT       0.063700
     47 H8           2.3880    -3.5030    -3.2520 h5         1 IOT       0.060800
     48 H61          3.5220    -6.2200    -7.9480 hn         1 IOT       0.276300
     49 H62          4.6220    -7.0390    -6.8880 hn         1 IOT       0.276300
     50 H2           0.3720    -9.2390    -5.5970 h5         1 IOT      -0.008900
     51 HCX1        -0.3520     3.7640    -2.0310 h1         1 IOT       0.017700
     52 HCX2        -1.7960     3.7640    -1.0100 h1         1 IOT       0.017700
     53 HNX          0.7760     4.9760    -0.3400 hn         1 IOT       0.323800
     54 HA          -1.6930     5.8600    -1.5120 h1         1 IOT       0.021700
     55 HB1          0.0000     7.5520     0.3630 hc         1 IOT       0.017700
     56 HB2         -1.3330     8.1450    -0.6380 hc         1 IOT       0.017700
     57 HG1         -1.5590     6.0370     1.5410 hc         1 IOT       0.036200
     58 HG2         -2.8920     6.6300     0.5400 hc         1 IOT       0.036200
     59 HD1         -2.5300     8.9160     1.4130 h1         1 IOT       0.030200
     60 HD2         -1.1980     8.3230     2.4150 h1         1 IOT       0.030200
     61 HE          -3.4980     6.7600     3.0020 hn         1 IOT       0.308800
     62 HH11        -2.2630    10.0320     3.2800 hn         1 IOT       0.393400
     63 HH21        -3.9400     7.4880     5.5290 hn         1 IOT       0.216133
     64 HH22        -5.1800     7.8830     4.5400 hn         1 IOT       0.216133
     65 HH23        -4.5410     9.0080     5.5390 hn         1 IOT       0.216133
@<TRIPOS>BOND
     1     1     2 1   
     2     1     3 1   
     3     1     4 1   
     4     1    26 1   
     5     4     5 1   
     6     5     6 1   
     7     5    39 1   
     8     5    40 1   
     9     6     7 1   
    10     6     8 1   
    11     6    41 1   
    12     7    12 1   
    13     8     9 1   
    14     8    10 1   
    15     8    42 1   
    16     9    43 1   
    17    10    11 1   
    18    10    12 1   
    19    10    44 1   
    20    11    45 1   
    21    12    13 1   
    22    12    46 1   
    23    13    14 1   
    24    13    22 1   
    25    14    15 2   
    26    14    47 1   
    27    15    16 1   
    28    16    17 ar  
    29    16    22 ar  
    30    17    18 1   
    31    17    19 ar  
    32    18    48 1   
    33    18    49 1   
    34    19    20 ar  
    35    20    21 ar  
    36    20    50 1   
    37    21    22 ar  
    38    23    24 1   
    39    23    27 1   
    40    23    51 1   
    41    23    52 1   
    42    24    25 2   
    43    24    26 1   
    44    27    28 1   
    45    27    53 1   
    46    28    29 1   
    47    28    36 1   
    48    28    54 1   
    49    29    30 1   
    50    29    55 1   
    51    29    56 1   
    52    30    31 1   
    53    30    57 1   
    54    30    58 1   
    55    31    32 1   
    56    31    59 1   
    57    31    60 1   
    58    32    33 1   
    59    32    61 1   
    60    33    34 2   
    61    33    35 1   
    62    34    62 1   
    63    35    63 1   
    64    35    64 1   
    65    35    65 1   
    66    36    37 1   
    67    36    38 1   
@<TRIPOS>SUBSTRUCTURE
     1 IOT         1 TEMP              0 ****  ****    0 ROOT
