@<TRIPOS>MOLECULE
molecule
   19    19     1     0     0
SMALL
bcc


@<TRIPOS>ATOM
      1 C            0.0000     0.0000     0.0000 c3         1 IOX      -0.147300
      2 S            1.8150     0.0000     0.0000 s6         1 IOX       1.453500
      3 C1          -0.5020     0.0000     1.4220 ca         1 IOX      -0.097300
      4 C2          -0.7320     1.1980     2.0730 ca         1 IOX      -0.106000
      5 C3          -1.1920     1.1980     3.3770 ca         1 IOX      -0.125000
      6 C4          -1.4230     0.0000     4.0280 ca         1 IOX      -0.115000
      7 C5          -1.1930    -1.1970     3.3760 ca         1 IOX      -0.125000
      8 C6          -0.7380    -1.1960     2.0710 ca         1 IOX      -0.106000
      9 O1S          2.1930     0.0000    -1.4740 oh         1 IOX      -0.737700
     10 O2S          2.3130     1.2370     0.4910 o          1 IOX      -0.645800
     11 O3S          2.3130    -1.2370     0.4900 o          1 IOX      -0.645800
     12 H           -0.3610    -0.8850    -0.5110 h1         1 IOX       0.108700
     13 HA          -0.3610     0.8850    -0.5110 h1         1 IOX       0.108700
     14 H2          -0.5510     2.1360     1.5620 ha         1 IOX       0.139500
     15 H3          -1.3730     2.1360     3.8870 ha         1 IOX       0.136000
     16 H4          -1.7820     0.0000     5.0500 ha         1 IOX       0.133000
     17 H5          -1.3750    -2.1360     3.8860 ha         1 IOX       0.136000
     18 H6          -0.5570    -2.1340     1.5590 ha         1 IOX       0.139500
     19 HO1S         3.1320     0.0000    -1.5580 ho         1 IOX       0.498000
@<TRIPOS>BOND
     1     1     3 1
     2     1     2 1
     3     1    12 1
     4     1    13 1
     5    10     2 2
     6     2    11 2
     7     2     9 1
     8     8     3 ar
     9     3     4 ar
    10     4     5 ar
    11     4    14 1
    12     6     5 ar
    13     5    15 1
    14     7     6 ar
    15     6    16 1
    16     8     7 ar
    17     7    17 1
    18     8    18 1
    19     9    19 1
@<TRIPOS>SUBSTRUCTURE
     1 IOX         1 TEMP              0 ****  ****    0 ROOT
