@<TRIPOS>MOLECULE
IOX
   19    19     1     0     0
SMALL
bcc


@<TRIPOS>ATOM
      1 C           0.2010   -0.1240    0.1140 c3        1 IOX     -0.282300
      2 S           1.8510    0.2640    0.0710 s6        1 IOX      1.604500
      3 C1         -0.3880   -0.0900    1.4740 ca        1 IOX     -0.089300
      4 C2         -0.5210    1.1310    2.1500 ca        1 IOX     -0.115000
      5 C3         -1.0960    1.1680    3.4190 ca        1 IOX     -0.125500
      6 C4         -1.5460   -0.0090    4.0190 ca        1 IOX     -0.117000
      7 C5         -1.4190   -1.2240    3.3480 ca        1 IOX     -0.125500
      8 C6         -0.8440   -1.2670    2.0790 ca        1 IOX     -0.115000
      9 O1S         2.0460    0.2850   -1.5780 oh        1 IOX     -0.766700
     10 O2S         2.0990    1.5540    0.4840 o         1 IOX     -0.660300
     11 O3S         2.6700   -0.7850    0.4380 o         1 IOX     -0.660300
     12 H          -0.3840    0.5840   -0.5410 h1        1 IOX      0.133700
     13 HA          0.0230   -1.1380   -0.3420 h1        1 IOX      0.133700
     14 H2         -0.1550    2.0590    1.6820 ha        1 IOX      0.144500
     15 H3         -1.1930    2.1290    3.9460 ha        1 IOX      0.138500
     16 H4         -2.0010    0.0240    5.0200 ha        1 IOX      0.137000
     17 H5         -1.7720   -2.1540    3.8190 ha        1 IOX      0.138500
     18 H6         -0.7480   -2.2290    1.5540 ha        1 IOX      0.144500
     19 HO1S        2.8020   -0.1730   -1.9390 ho        1 IOX      0.482000
@<TRIPOS>BOND
     1    1    2 1   
     2    1    3 1   
     3    1   12 1   
     4    1   13 1   
     5    2    9 1   
     6    2   10 2   
     7    2   11 2   
     8    3    4 ar  
     9    3    8 ar  
    10    4    5 ar  
    11    4   14 1   
    12    5    6 ar  
    13    5   15 1   
    14    6    7 ar  
    15    6   16 1   
    16    7    8 ar  
    17    7   17 1   
    18    8   18 1   
    19    9   19 1   
@<TRIPOS>SUBSTRUCTURE
     1 IOX         1 TEMP              0 ****  ****    0 ROOT
