@<TRIPOS>MOLECULE
molecule
   22    22     1     0     0
SMALL
bcc


@<TRIPOS>ATOM
      1 C8           0.0000     0.0000     0.0000 c3         1 IP0      -0.084100
      2 C7           1.5300     0.0000     0.0000 c3         1 IP0      -0.027400
      3 C9           2.0400     0.0000     1.4420 c3         1 IP0      -0.084100
      4 C2           2.0310    -1.2320    -0.7100 ca         1 IP0      -0.097300
      5 C3           1.6980    -2.4860    -0.2380 ca         1 IP0      -0.097000
      6 C4           2.1580    -3.6160    -0.8900 ca         1 IP0      -0.155000
      7 C5           2.9530    -3.4930    -2.0140 ca         1 IP0      -0.101000
      8 C6           3.2900    -2.2400    -2.4890 ca         1 IP0      -0.204000
      9 C1           2.8250    -1.1050    -1.8420 ca         1 IP0       0.127100
     10 O1           3.1490     0.1280    -2.3120 oh         1 IP0      -0.505100
     11 H8          -0.3610     0.9650     0.3340 hc         1 IP0       0.034867
     12 H8A         -0.3610    -0.1930    -1.0030 hc         1 IP0       0.034867
     13 H8B         -0.3610    -0.7720     0.6690 hc         1 IP0       0.034867
     14 H7           1.8910     0.8840    -0.5110 hc         1 IP0       0.072700
     15 H9           3.1040    -0.2050     1.4490 hc         1 IP0       0.034867
     16 H9A          1.5210    -0.7640     2.0090 hc         1 IP0       0.034867
     17 H9B          1.8560     0.9690     1.8910 hc         1 IP0       0.034867
     18 H3           1.0750    -2.5850     0.6420 ha         1 IP0       0.136000
     19 H4           1.8950    -4.5990    -0.5180 ha         1 IP0       0.130000
     20 H5           3.3150    -4.3800    -2.5210 ha         1 IP0       0.130000
     21 H6           3.9120    -2.1450    -3.3710 ha         1 IP0       0.131000
     22 HO1          3.2010     0.1030    -3.2530 ho         1 IP0       0.420000
@<TRIPOS>BOND
     1     1     2 1
     2     2     3 1
     3     2     4 1
     4     4     5 ar
     5     4     9 ar
     6     5     6 ar
     7     6     7 ar
     8     7     8 ar
     9     8     9 ar
    10     9    10 1
    11     1    11 1
    12     1    12 1
    13     1    13 1
    14     2    14 1
    15     3    15 1
    16     3    16 1
    17     3    17 1
    18     5    18 1
    19     6    19 1
    20     7    20 1
    21     8    21 1
    22    10    22 1
@<TRIPOS>SUBSTRUCTURE
     1 IP0         1 TEMP              0 ****  ****    0 ROOT
