@<TRIPOS>MOLECULE
IP0
   22    22     1     0     0
SMALL
bcc


@<TRIPOS>ATOM
      1 C8         -0.0200    0.0230    0.0380 c3        1 IP0     -0.086100
      2 C7          1.4960   -0.0140    0.0080 c3        1 IP0     -0.020400
      3 C9          2.0570    0.0540    1.4160 c3        1 IP0     -0.086100
      4 C2          1.9880   -1.2330   -0.7050 ca        1 IP0     -0.094300
      5 C3          1.6920   -2.5140   -0.2290 ca        1 IP0     -0.096000
      6 C4          2.1470   -3.6550   -0.8890 ca        1 IP0     -0.163000
      7 C5          2.9130   -3.5330   -2.0470 ca        1 IP0     -0.095000
      8 C6          3.2250   -2.2720   -2.5470 ca        1 IP0     -0.212000
      9 C1          2.7640   -1.1290   -1.8780 ca        1 IP0      0.124100
     10 O1          3.0490    0.1390   -2.3380 oh        1 IP0     -0.500100
     11 H8         -0.4260   -0.8550    0.5970 hc        1 IP0      0.034700
     12 H8A        -0.4300    0.0040   -1.0000 hc        1 IP0      0.034700
     13 H8B        -0.3680    0.9560    0.5430 hc        1 IP0      0.034700
     14 H7          1.8550    0.8990   -0.5530 hc        1 IP0      0.072700
     15 H9          1.7080    0.9880    1.9190 hc        1 IP0      0.034700
     16 H9A         1.7180   -0.8220    2.0200 hc        1 IP0      0.034700
     17 H9B         3.1730    0.0580    1.3910 hc        1 IP0      0.034700
     18 H3          1.0880   -2.6180    0.6860 ha        1 IP0      0.135000
     19 H4          1.9010   -4.6510   -0.4940 ha        1 IP0      0.133000
     20 H5          3.2730   -4.4320   -2.5690 ha        1 IP0      0.132000
     21 H6          3.8280   -2.1690   -3.4600 ha        1 IP0      0.131000
     22 HO1         3.5820    0.0500   -3.1410 ho        1 IP0      0.418000
@<TRIPOS>BOND
     1    1    2 1   
     2    1   11 1   
     3    1   12 1   
     4    1   13 1   
     5    2    3 1   
     6    2    4 1   
     7    2   14 1   
     8    3   15 1   
     9    3   16 1   
    10    3   17 1   
    11    4    5 ar  
    12    4    9 ar  
    13    5    6 ar  
    14    5   18 1   
    15    6    7 ar  
    16    6   19 1   
    17    7    8 ar  
    18    7   20 1   
    19    8    9 ar  
    20    8   21 1   
    21    9   10 1   
    22   10   22 1   
@<TRIPOS>SUBSTRUCTURE
     1 IP0         1 TEMP              0 ****  ****    0 ROOT
