@<TRIPOS>MOLECULE
IP1
   44    45     1     0     0
SMALL
bcc


@<TRIPOS>ATOM
      1 C1           0.0000     0.0000     0.0000 c          1 IP1       0.956600
      2 C2           1.5060     0.0000     0.0000 c3         1 IP1      -0.200500
      3 C3           2.0170     0.0000     1.4430 c3         1 IP1      -0.027400
      4 C4           3.5470    -0.0010     1.4430 c3         1 IP1      -0.033400
      5 C7           4.0570    -0.0000     2.8850 c3         1 IP1      -0.091400
      6 C10          5.5630    -0.0000     2.8850 c          1 IP1       0.572100
      7 N11          6.2370     0.0000     4.0520 ns         1 IP1      -0.155900
      8 C12          7.7020     0.0000     4.0520 cy         1 IP1      -0.122300
      9 C13          8.3140    -1.2720     4.6000 c          1 IP1       0.640500
     10 N14          1.9970     1.1980    -0.6930 nz         1 IP1       0.083400
     11 O15          6.1700    -0.0010     1.8360 o          1 IP1      -0.676100
     12 C16          8.3180     0.7010     5.2650 cy         1 IP1       0.101800
     13 S17          7.0890     1.2820     6.5000 ss         1 IP1      -0.496200
     14 O18          8.4270    -2.4020     4.1780 o          1 IP1      -0.549500
     15 O19         -0.6710    -1.1620    -0.0000 o          1 IP1      -0.825300
     16 O20         -0.6040     1.0460    -0.0010 o          1 IP1      -0.825300
     17 N29          8.7130    -0.6340     5.7770 nj         1 IP1      -0.138800
     18 C30          8.0420    -1.0690     7.0060 c3         1 IP1      -0.109300
     19 C31          8.9820    -1.9390     7.7990 c          1 IP1       0.978600
     20 C32          7.5800     0.1390     7.8670 c3         1 IP1       0.137100
     21 C33          8.7330     0.7120     8.6940 c3         1 IP1       0.013900
     22 C37          6.3860    -0.2250     8.7530 c3         1 IP1       0.013900
     23 O42          8.4960    -2.8930     8.6070 o          1 IP1      -0.864800
     24 O43         10.1770    -1.7770     7.7060 o          1 IP1      -0.864800
     25 H2           1.8670    -0.8850    -0.5110 hx         1 IP1       0.089700
     26 H32          1.6560     0.8850     1.9530 hc         1 IP1       0.052200
     27 H31          1.6560    -0.8840     1.9530 hc         1 IP1       0.052200
     28 H42A         3.9080     0.8840     0.9320 hc         1 IP1       0.017200
     29 H41          3.9080    -0.8850     0.9330 hc         1 IP1       0.017200
     30 H72          3.6960    -0.8850     3.3960 hc         1 IP1       0.036700
     31 H71          3.6960     0.8840     3.3960 hc         1 IP1       0.036700
     32 H11          5.7370     0.0300     4.9180 hn         1 IP1       0.214500
     33 H12          8.1490     0.3110     3.1160 h1         1 IP1       0.081700
     34 H142         1.4100     1.3930    -1.4800 hn         1 IP1       0.210800
     35 H141         2.9340     1.0430    -1.0060 hn         1 IP1       0.210800
     36 H16          9.1500     1.3630     5.0550 h2         1 IP1       0.082700
     37 H30          7.1690    -1.6510     6.7350 h1         1 IP1       0.039700
     38 H333         8.4530     1.6860     9.0760 hc         1 IP1       0.020867
     39 H332         9.6130     0.8080     8.0700 hc         1 IP1       0.020867
     40 H331         8.9480     0.0480     9.5220 hc         1 IP1       0.020867
     41 H373         6.7260    -0.8240     9.5890 hc         1 IP1       0.020867
     42 H372         5.9220     0.6820     9.1230 hc         1 IP1       0.020867
     43 H371         5.6650    -0.7890     8.1730 hc         1 IP1       0.020867
     44 H143         1.9810     1.9770    -0.0640 hn         1 IP1       0.210800
@<TRIPOS>BOND
     1     1     2 1   
     2     1    15 1   
     3     1    16 1   
     4     2     3 1   
     5     2    10 1   
     6     2    25 1   
     7     3     4 1   
     8     3    26 1   
     9     3    27 1   
    10     4     5 1   
    11     4    28 1   
    12     4    29 1   
    13     5     6 1   
    14     5    30 1   
    15     5    31 1   
    16     6     7 1   
    17     6    11 2   
    18     7     8 1   
    19     7    32 1   
    20     8     9 1   
    21     8    12 1   
    22     8    33 1   
    23     9    14 2   
    24     9    17 1   
    25    10    34 1   
    26    10    35 1   
    27    10    44 1   
    28    12    13 1   
    29    12    17 1   
    30    12    36 1   
    31    13    20 1   
    32    17    18 1   
    33    18    19 1   
    34    18    20 1   
    35    18    37 1   
    36    19    23 1   
    37    19    24 1   
    38    20    21 1   
    39    20    22 1   
    40    21    38 1   
    41    21    39 1   
    42    21    40 1   
    43    22    41 1   
    44    22    42 1   
    45    22    43 1   
@<TRIPOS>SUBSTRUCTURE
     1 IP1         1 TEMP              0 ****  ****    0 ROOT
