@<TRIPOS>MOLECULE
IP2
   30    30     1     0     0
SMALL
bcc


@<TRIPOS>ATOM
      1 C1         -0.0670   -0.0090    0.0420 c3        1 IP2      0.109600
      2 C2          1.4610    0.1340    0.0860 c3        1 IP2      0.109600
      3 C3          1.9790    0.0180    1.5320 c3        1 IP2      0.086100
      4 C4          1.5190   -1.3550    2.1600 c3        1 IP2      0.198100
      5 C5         -0.0400   -1.1390    2.3210 c3        1 IP2      0.198100
      6 C6         -0.5430   -1.2470    0.8270 c3        1 IP2      0.086100
      7 O1         -0.4830   -0.0470   -1.3240 oh        1 IP2     -0.655800
      8 O2          2.0540   -0.8070   -0.8020 oh        1 IP2     -0.655800
      9 O3          3.3670    0.2650    1.4780 oh        1 IP2     -0.704800
     10 O4          2.2580   -1.6600    3.2720 os        1 IP2     -0.546700
     11 O5         -0.7260   -2.0070    3.1290 os        1 IP2     -0.546700
     12 O6         -1.9330   -1.3600    0.6380 oh        1 IP2     -0.704800
     13 P4          3.5580   -2.7990    3.0870 p5        1 IP2      1.331400
     14 O41         4.6880   -1.8040    2.8680 o         1 IP2     -0.936500
     15 O42         3.6900   -3.5930    4.3560 o         1 IP2     -0.936500
     16 O43         3.2560   -3.5810    1.8330 o         1 IP2     -0.936500
     17 P5         -1.9740   -1.3520    4.1420 p5        1 IP2      1.331400
     18 O51        -3.1400   -1.4360    3.1680 o         1 IP2     -0.936500
     19 O52        -2.1230   -2.2740    5.3220 o         1 IP2     -0.936500
     20 O53        -1.5940    0.0720    4.4530 o         1 IP2     -0.936500
     21 H1         -0.5540    0.9140    0.4560 h1        1 IP2      0.025700
     22 H2          1.7450    1.1410   -0.3400 h1        1 IP2      0.025700
     23 H3          1.5290    0.8600    2.1320 h1        1 IP2      0.020200
     24 H4          1.6840   -2.1740    1.3930 h1        1 IP2      0.036200
     25 H5         -0.2340   -0.0830    2.6820 h1        1 IP2      0.036200
     26 H6         -0.0860   -2.1620    0.3480 h1        1 IP2      0.020200
     27 HO1        -0.2340   -0.9220   -1.6400 ho        1 IP2      0.417500
     28 HO2         2.5070   -1.4680   -0.2550 ho        1 IP2      0.417500
     29 HO3         3.8170   -0.4360    2.0190 ho        1 IP2      0.491500
     30 HO6        -2.3520   -1.4380    1.5360 ho        1 IP2      0.491500
@<TRIPOS>BOND
     1    1    2 1   
     2    1    6 1   
     3    1    7 1   
     4    1   21 1   
     5    2    3 1   
     6    2    8 1   
     7    2   22 1   
     8    3    4 1   
     9    3    9 1   
    10    3   23 1   
    11    4    5 1   
    12    4   10 1   
    13    4   24 1   
    14    5    6 1   
    15    5   11 1   
    16    5   25 1   
    17    6   12 1   
    18    6   26 1   
    19    7   27 1   
    20    8   28 1   
    21    9   29 1   
    22   10   13 1   
    23   11   17 1   
    24   12   30 1   
    25   13   14 1   
    26   13   15 1   
    27   13   16 1   
    28   17   18 1   
    29   17   19 1   
    30   17   20 1   
@<TRIPOS>SUBSTRUCTURE
     1 IP2         1 TEMP              0 ****  ****    0 ROOT
