@<TRIPOS>MOLECULE
molecule
   30    30     1     0     0
SMALL
bcc


@<TRIPOS>ATOM
      1 C1           0.0000     0.0000     0.0000 c3         1 IP2       0.108100
      2 C2           1.5290     0.0000     0.0000 c3         1 IP2       0.108100
      3 C3           2.0400     0.0000     1.4420 c3         1 IP2       0.121600
      4 C4           1.5290    -1.2490     2.1640 c3         1 IP2       0.179100
      5 C5           0.0000    -1.2490     2.1640 c3         1 IP2       0.179100
      6 C6          -0.5100    -1.2490     0.7220 c3         1 IP2       0.121600
      7 O1          -0.4770     0.0010    -1.3470 oh         1 IP2      -0.591800
      8 O2           2.0060    -1.1660    -0.6730 oh         1 IP2      -0.591800
      9 O3           3.4680     0.0000     1.4420 oh         1 IP2      -0.547300
     10 O4           2.0060    -1.2480     3.5110 os         1 IP2      -0.462700
     11 O5          -0.4760    -2.4140     2.8370 os         1 IP2      -0.462700
     12 O6          -1.9390    -1.2480     0.7220 oh         1 IP2      -0.547300
     13 P4           2.8860    -2.5820     3.6930 p5         1 IP2       1.193900
     14 O41          4.0160    -2.5620     2.7370 o          1 IP2      -0.932500
     15 O42          3.4580    -2.6470     5.1970 o          1 IP2      -0.932500
     16 O43          1.9690    -3.8740     3.4120 o          1 IP2      -0.932500
     17 P5          -1.3580    -1.9050     4.0840 p5         1 IP2       1.193900
     18 O51         -2.4870    -1.0860     3.5880 o          1 IP2      -0.932500
     19 O52         -1.9300    -3.1730     4.8930 o          1 IP2      -0.932500
     20 O53         -0.4400    -1.0150     5.0620 o          1 IP2      -0.932500
     21 H1          -0.3580     0.8830     0.5140 h1         1 IP2      -0.003800
     22 H2           1.8880     0.8870    -0.5080 h1         1 IP2      -0.003800
     23 H3           1.6740     0.8830     1.9520 h1         1 IP2       0.034700
     24 H4           1.8880    -2.1320     1.6500 h1         1 IP2       0.077700
     25 H5          -0.3580    -0.3610     2.6720 h1         1 IP2       0.077700
     26 H6          -0.1450    -2.1320     0.2120 h1         1 IP2       0.034700
     27 HO1         -0.8590     0.8400    -1.5450 ho         1 IP2       0.349500
     28 HO2          2.5040    -0.9100    -1.4320 ho         1 IP2       0.349500
     29 HO3          3.7830     0.8760     1.5950 ho         1 IP2       0.338500
     30 HO6         -2.2540    -1.9140     0.1330 ho         1 IP2       0.338500
@<TRIPOS>BOND
     1     1     2 1
     2     1     6 1
     3     1     7 1
     4     1    21 1
     5     2     3 1
     6     2     8 1
     7     2    22 1
     8     3     4 1
     9     3     9 1
    10     3    23 1
    11     4     5 1
    12     4    10 1
    13     4    24 1
    14     5     6 1
    15     5    11 1
    16     5    25 1
    17     6    12 1
    18     6    26 1
    19     7    27 1
    20     8    28 1
    21     9    29 1
    22    10    13 1
    23    11    17 1
    24    12    30 1
    25    13    14 1
    26    13    15 1
    27    13    16 1
    28    17    18 1
    29    17    19 1
    30    17    20 1
@<TRIPOS>SUBSTRUCTURE
     1 IP2         1 TEMP              0 ****  ****    0 ROOT
