@<TRIPOS>MOLECULE
IP3
   18    17     1     0     0
SMALL
bcc


@<TRIPOS>ATOM
      1 C1         -0.0330   -0.1260   -0.0050 c3        1 IP3      0.132400
      2 C2          1.4660    0.1230    0.0200 c3        1 IP3     -0.081400
      3 C3          2.0150    0.0950    1.4370 c3        1 IP3     -0.066700
      4 C4          3.5220   -0.0620    1.4030 c3        1 IP3     -0.090600
      5 C5          1.6390    1.3460    2.2030 c3        1 IP3     -0.090600
      6 O1         -0.4250   -0.1520   -1.3700 oh        1 IP3     -0.602800
      7 H11        -0.5830    0.6920    0.5330 h1        1 IP3      0.020200
      8 H12        -0.2800   -1.1080    0.4800 h1        1 IP3      0.020200
      9 H21         1.9700   -0.6650   -0.5990 hc        1 IP3      0.055700
     10 H22         1.6850    1.1120   -0.4590 hc        1 IP3      0.055700
     11 H3          1.5790   -0.7960    1.9730 hc        1 IP3      0.044700
     12 H41         3.8050   -1.0160    0.8970 hc        1 IP3      0.034367
     13 H42         3.9340   -0.0750    2.4410 hc        1 IP3      0.034367
     14 H43         3.9910    0.7850    0.8470 hc        1 IP3      0.034367
     15 H51         2.0460    2.2540    1.6970 hc        1 IP3      0.034367
     16 H52         2.0530    1.3030    3.2390 hc        1 IP3      0.034367
     17 H53         0.5290    1.4460    2.2700 hc        1 IP3      0.034367
     18 HO1        -1.3770   -0.2990   -1.3790 ho        1 IP3      0.398000
@<TRIPOS>BOND
     1    1    2 1   
     2    1    6 1   
     3    1    7 1   
     4    1    8 1   
     5    2    3 1   
     6    2    9 1   
     7    2   10 1   
     8    3    4 1   
     9    3    5 1   
    10    3   11 1   
    11    4   12 1   
    12    4   13 1   
    13    4   14 1   
    14    5   15 1   
    15    5   16 1   
    16    5   17 1   
    17    6   18 1   
@<TRIPOS>SUBSTRUCTURE
     1 IP3         1 TEMP              0 ****  ****    0 ROOT
