@<TRIPOS>MOLECULE
molecule
   18    17     1     0     0
SMALL
bcc


@<TRIPOS>ATOM
      1 C1           0.0000     0.0000     0.0000 c3         1 IP3       0.138400
      2 C2           1.5290     0.0000     0.0000 c3         1 IP3      -0.076400
      3 C3           2.0400     0.0000     1.4410 c3         1 IP3      -0.077700
      4 C4           3.5690    -0.0010     1.4410 c3         1 IP3      -0.088600
      5 C5           1.5300     1.2470     2.1640 c3         1 IP3      -0.088600
      6 O1          -0.4780     0.0010    -1.3460 oh         1 IP3      -0.612800
      7 H11         -0.3610     0.8840     0.5110 h1         1 IP3       0.019700
      8 H12         -0.3610    -0.8850     0.5100 h1         1 IP3       0.019700
      9 H21          1.8900     0.8840    -0.5110 hc         1 IP3       0.054200
     10 H22          1.8900    -0.8840    -0.5110 hc         1 IP3       0.054200
     11 H3           1.6790    -0.8850     1.9510 hc         1 IP3       0.047700
     12 H41          3.9300    -0.8660     0.8970 hc         1 IP3       0.034867
     13 H42          3.9310     0.9020     0.9630 hc         1 IP3       0.034867
     14 H43          3.9310    -0.0380     2.4610 hc         1 IP3       0.034867
     15 H51          2.1650     1.4560     3.0170 hc         1 IP3       0.034867
     16 H52          0.5150     1.0790     2.5020 hc         1 IP3       0.034867
     17 H53          1.5490     2.0910     1.4850 hc         1 IP3       0.034867
     18 HO1         -1.4100    -0.1390    -1.3490 ho         1 IP3       0.400000
@<TRIPOS>BOND
     1     1     2 1
     2     1     6 1
     3     1     7 1
     4     1     8 1
     5     2     3 1
     6     2     9 1
     7     2    10 1
     8     3     4 1
     9     3     5 1
    10     3    11 1
    11     4    12 1
    12     4    13 1
    13     4    14 1
    14     5    15 1
    15     5    16 1
    16     5    17 1
    17     6    18 1
@<TRIPOS>SUBSTRUCTURE
     1 IP3         1 TEMP              0 ****  ****    0 ROOT
