@<TRIPOS>MOLECULE
molecule
   22    22     1     0     0
SMALL
bcc


@<TRIPOS>ATOM
      1 N1           0.0000     0.0000     0.0000 n          1 IP4      -0.492800
      2 C2           1.3430     0.0000     0.0000 c          1 IP4       0.702500
      3 O2           2.0390    -0.0010    -0.9920 o          1 IP4      -0.632500
      4 C3           1.8620     0.0000     1.4220 c3         1 IP4      -0.170400
      5 C4           0.6410    -0.4190     2.2710 c3         1 IP4      -0.087400
      6 C5          -0.5340     0.0160     1.3660 c3         1 IP4       0.106400
      7 CM1         -0.8260    -0.0090    -1.2100 c3         1 IP4       0.115300
      8 CM2         -1.0010     1.4230     1.7450 c3         1 IP4      -0.097100
      9 CM3         -1.6920    -0.9760     1.4870 c3         1 IP4      -0.097100
     10 H31          2.1950     0.9920     1.7020 hc         1 IP4       0.075200
     11 H32          2.6640    -0.7210     1.5310 hc         1 IP4       0.075200
     12 H41          0.6230     0.1180     3.2110 hc         1 IP4       0.059200
     13 H42          0.6310    -1.4910     2.4270 hc         1 IP4       0.059200
     14 HM11        -1.8020     0.4040    -0.9840 h1         1 IP4       0.042367
     15 HM12        -0.9370    -1.0260    -1.5640 h1         1 IP4       0.042367
     16 HM13        -0.3490     0.5910    -1.9760 h1         1 IP4       0.042367
     17 HM21        -1.9080     1.6610     1.2010 hc         1 IP4       0.043200
     18 HM22        -1.1970     1.4640     2.8090 hc         1 IP4       0.043200
     19 HM23        -0.2300     2.1390     1.4910 hc         1 IP4       0.043200
     20 HM31        -1.4110    -1.9160     1.0280 hc         1 IP4       0.043200
     21 HM32        -1.9190    -1.1390     2.5330 hc         1 IP4       0.043200
     22 HM33        -2.5650    -0.5760     0.9860 hc         1 IP4       0.043200
@<TRIPOS>BOND
     1     1     2 1
     2     1     6 1
     3     1     7 1
     4     2     3 2
     5     2     4 1
     6     4     5 1
     7     4    10 1
     8     4    11 1
     9     5     6 1
    10     5    12 1
    11     5    13 1
    12     6     8 1
    13     6     9 1
    14     7    14 1
    15     7    15 1
    16     7    16 1
    17     8    17 1
    18     8    18 1
    19     8    19 1
    20     9    20 1
    21     9    21 1
    22     9    22 1
@<TRIPOS>SUBSTRUCTURE
     1 IP4         1 TEMP              0 ****  ****    0 ROOT
