@<TRIPOS>MOLECULE
IP6
   42    45     1     0     0
SMALL
bcc


@<TRIPOS>ATOM
      1 N1           0.0000     0.0000     0.0000 nv         1 IP6      -0.667500
      2 C2           1.4180     0.0000     0.0000 ca         1 IP6       0.405200
      3 N3           2.0450     0.0000     1.1990 nb         1 IP6      -0.541000
      4 C4           3.3960    -0.0010     1.1680 ca         1 IP6       0.331200
      5 C5           4.1470    -0.0010     0.0030 ca         1 IP6      -0.161300
      6 C6           3.4660    -0.0020    -1.2090 ca         1 IP6      -0.174000
      7 C7           2.0660    -0.0010    -1.2370 ca         1 IP6      -0.036700
      8 N8           1.3850     0.0000    -2.4460 nu         1 IP6      -0.391600
      9 C9           2.0340     0.0010    -3.7320 c3         1 IP6       0.224100
     10 C10          1.0590     0.0630    -4.8590 ca         1 IP6      -0.120300
     11 C11          0.6520     1.2990    -5.3600 ca         1 IP6      -0.086000
     12 C12         -0.2590     1.3580    -6.4150 ca         1 IP6      -0.101000
     13 C13         -0.7630     0.1810    -6.9680 ca         1 IP6      -0.088000
     14 C14         -0.3560    -1.0540    -6.4650 cp         1 IP6      -0.028000
     15 C15          0.5550    -1.1140    -5.4120 ca         1 IP6      -0.080000
     16 C16         -0.8800    -2.2760    -7.0410 cp         1 IP6      -0.025000
     17 C17         -1.2440    -2.3030    -8.3850 ca         1 IP6      -0.129000
     18 C18         -1.7540    -3.4700    -8.9660 ca         1 IP6      -0.036000
     19 C19         -1.8960    -4.6260    -8.1740 ca         1 IP6      -0.094800
     20 C20         -2.3640    -5.9460    -8.4230 cc         1 IP6      -0.164200
     21 C21         -2.2680    -6.6530    -7.2460 cd         1 IP6      -0.280100
     22 N22         -1.7600    -5.8140    -6.2910 na         1 IP6       0.369600
     23 C23         -1.5240    -4.5700    -6.8290 ca         1 IP6      -0.235200
     24 C24         -1.0140    -3.4100    -6.2350 ca         1 IP6      -0.101000
     25 HN11        -0.5000     0.8670     0.0230 hn         1 IP6       0.270800
     26 HN12        -0.5000    -0.8670     0.0240 hn         1 IP6       0.270800
     27 H4           3.9260    -0.0010     2.1130 h4         1 IP6      -0.026900
     28 H5           5.2290    -0.0020     0.0360 ha         1 IP6       0.111000
     29 H6           4.0230    -0.0020    -2.1380 ha         1 IP6       0.112000
     30 HN8          0.3840     0.0010    -2.4230 hn         1 IP6       0.293800
     31 H91          2.6240    -0.9030    -3.8280 h1         1 IP6       0.013700
     32 H92          2.6940     0.8580    -3.7920 h1         1 IP6       0.013700
     33 H11          1.0430     2.2130    -4.9310 ha         1 IP6       0.108000
     34 H12         -0.5750     2.3190    -6.8040 ha         1 IP6       0.105000
     35 H13         -1.4710     0.2270    -7.7860 ha         1 IP6       0.114000
     36 H15          0.8710    -2.0750    -5.0220 ha         1 IP6       0.116000
     37 H17         -1.1280    -1.4110    -8.9880 ha         1 IP6       0.110000
     38 H18         -2.0340    -3.4840   -10.0120 ha         1 IP6       0.103000
     39 H20         -2.7300    -6.3270    -9.3690 ha         1 IP6       0.128000
     40 H21         -2.5020    -7.7030    -7.1130 h4         1 IP6       0.144000
     41 HN22        -1.5860    -6.0690    -5.3390 hn         1 IP6       0.111700
     42 H24         -1.0080    -3.3120    -5.1560 ha         1 IP6       0.112000
@<TRIPOS>BOND
     1     1     2 1   
     2     1    25 1   
     3     1    26 1   
     4     2     3 ar  
     5     2     7 ar  
     6     3     4 ar  
     7     4     5 ar  
     8     4    27 1   
     9     5     6 ar  
    10     5    28 1   
    11     6     7 ar  
    12     6    29 1   
    13     7     8 1   
    14     8     9 1   
    15     8    30 1   
    16     9    10 1   
    17     9    31 1   
    18     9    32 1   
    19    10    11 ar  
    20    10    15 ar  
    21    11    12 ar  
    22    11    33 1   
    23    12    13 ar  
    24    12    34 1   
    25    13    14 ar  
    26    13    35 1   
    27    14    15 ar  
    28    14    16 1   
    29    15    36 1   
    30    16    17 ar  
    31    16    24 ar  
    32    17    18 ar  
    33    17    37 1   
    34    18    19 ar  
    35    18    38 1   
    36    19    20 1   
    37    19    23 ar  
    38    20    21 2   
    39    20    39 1   
    40    21    22 1   
    41    21    40 1   
    42    22    23 1   
    43    22    41 1   
    44    23    24 ar  
    45    24    42 1   
@<TRIPOS>SUBSTRUCTURE
     1 IP6         1 TEMP              0 ****  ****    0 ROOT
