@<TRIPOS>MOLECULE
IP7
   55    59     1     0     0
SMALL
bcc


@<TRIPOS>ATOM
      1 N1           0.0000     0.0000     0.0000 nv         1 IP7      -0.662500
      2 C2           1.4180     0.0000     0.0000 ca         1 IP7       0.401200
      3 N3           2.0460     0.0000     1.1970 nb         1 IP7      -0.545000
      4 C4           3.3970     0.0010     1.1660 ca         1 IP7       0.329200
      5 C5           4.1470     0.0010     0.0000 ca         1 IP7      -0.162300
      6 C6           3.4650     0.0000    -1.2110 ca         1 IP7      -0.171000
      7 C7           2.0640     0.0000    -1.2380 ca         1 IP7      -0.035700
      8 N8           1.3820     0.0030    -2.4460 nu         1 IP7      -0.386600
      9 C9           2.0290     0.0040    -3.7330 c3         1 IP7       0.227100
     10 C10          1.0510     0.0650    -4.8580 ca         1 IP7      -0.150300
     11 C11          0.5570    -1.1230    -5.3990 ca         1 IP7      -0.049000
     12 C12         -0.3560    -1.0830    -6.4510 cp         1 IP7      -0.064000
     13 C13         -0.7770     0.1430    -6.9640 ca         1 IP7      -0.050000
     14 C14         -0.2840     1.3310    -6.4240 ca         1 IP7      -0.193000
     15 C15          0.6300     1.2920    -5.3710 ca         1 IP7       0.159100
     16 O16          1.1030     2.4610    -4.8560 os         1 IP7      -0.301900
     17 C17          0.2350     3.5910    -4.9120 c3         1 IP7       0.154100
     18 C18          0.5510     4.5100    -3.7700 ca         1 IP7       0.344600
     19 C19         -0.1100     4.3390    -2.5680 ca         1 IP7      -0.186300
     20 C20          0.2080     5.2070    -1.5300 ca         1 IP7      -0.067000
     21 C21          1.1610     6.2000    -1.7270 ca         1 IP7      -0.205300
     22 C22          1.7630     6.2820    -2.9720 ca         1 IP7       0.397200
     23 N23          1.4810     5.4570    -4.0050 nb         1 IP7      -0.557000
     24 C24         -0.8690    -2.3160    -7.0110 cp         1 IP7      -0.017000
     25 C25         -1.2350    -2.3600    -8.3550 ca         1 IP7      -0.131000
     26 C26         -1.7320    -3.5380    -8.9240 ca         1 IP7      -0.035000
     27 C27         -1.8620    -4.6880    -8.1200 ca         1 IP7      -0.096800
     28 C28         -2.3170    -6.0160    -8.3550 cc         1 IP7      -0.163200
     29 C29         -2.2110    -6.7100    -7.1710 cd         1 IP7      -0.280100
     30 N30         -1.7090    -5.8560    -6.2250 na         1 IP7       0.366600
     31 C31         -1.4870    -4.6140    -6.7770 ca         1 IP7      -0.233200
     32 C32         -0.9880    -3.4430    -6.1950 ca         1 IP7      -0.105000
     33 HN11        -0.5000     0.8470     0.1830 hn         1 IP7       0.268300
     34 HN12        -0.5000    -0.8570    -0.1320 hn         1 IP7       0.268300
     35 H4           3.9270     0.0010     2.1110 h4         1 IP7      -0.027900
     36 H5           5.2300     0.0010     0.0320 ha         1 IP7       0.111000
     37 H6           4.0210     0.0000    -2.1410 ha         1 IP7       0.114000
     38 HN8          0.3810     0.0030    -2.4220 hn         1 IP7       0.288800
     39 H91          2.6190    -0.9000    -3.8290 h1         1 IP7       0.020200
     40 H92          2.6880     0.8620    -3.7930 h1         1 IP7       0.020200
     41 H11          0.8840    -2.0760    -5.0010 ha         1 IP7       0.117000
     42 H13         -1.4870     0.1720    -7.7820 ha         1 IP7       0.113000
     43 H14         -0.6110     2.2840    -6.8230 ha         1 IP7       0.121000
     44 H171        -0.7950     3.2620    -4.8380 h1         1 IP7       0.013200
     45 H172         0.3810     4.1140    -5.8500 h1         1 IP7       0.013200
     46 H19         -0.8480     3.5570    -2.4400 ha         1 IP7       0.120000
     47 H20         -0.2850     5.1100    -0.5710 ha         1 IP7       0.107000
     48 H21          1.4240     6.8880    -0.9320 ha         1 IP7       0.119000
     49 H22          2.5060     7.0550    -3.1270 h4         1 IP7      -0.024900
     50 H25         -1.1300    -1.4720    -8.9680 ha         1 IP7       0.110000
     51 H26         -2.0150    -3.5650    -9.9700 ha         1 IP7       0.102000
     52 H28         -2.6810    -6.4090    -9.2960 ha         1 IP7       0.128000
     53 H29         -2.4290    -7.7610    -7.0280 h4         1 IP7       0.144000
     54 HN30        -1.5300    -6.1000    -5.2710 hn         1 IP7       0.111700
     55 H32         -0.9790    -3.3350    -5.1170 ha         1 IP7       0.111000
@<TRIPOS>BOND
     1     1     2 1   
     2     1    33 1   
     3     1    34 1   
     4     2     3 ar  
     5     2     7 ar  
     6     3     4 ar  
     7     4     5 ar  
     8     4    35 1   
     9     5     6 ar  
    10     5    36 1   
    11     6     7 ar  
    12     6    37 1   
    13     7     8 1   
    14     8     9 1   
    15     8    38 1   
    16     9    10 1   
    17     9    39 1   
    18     9    40 1   
    19    10    11 ar  
    20    10    15 ar  
    21    11    12 ar  
    22    11    41 1   
    23    12    13 ar  
    24    12    24 1   
    25    13    14 ar  
    26    13    42 1   
    27    14    15 ar  
    28    14    43 1   
    29    15    16 1   
    30    16    17 1   
    31    17    18 1   
    32    17    44 1   
    33    17    45 1   
    34    18    19 ar  
    35    18    23 ar  
    36    19    20 ar  
    37    19    46 1   
    38    20    21 ar  
    39    20    47 1   
    40    21    22 ar  
    41    21    48 1   
    42    22    23 ar  
    43    22    49 1   
    44    24    25 ar  
    45    24    32 ar  
    46    25    26 ar  
    47    25    50 1   
    48    26    27 ar  
    49    26    51 1   
    50    27    28 1   
    51    27    31 ar  
    52    28    29 2   
    53    28    52 1   
    54    29    30 1   
    55    29    53 1   
    56    30    31 1   
    57    30    54 1   
    58    31    32 ar  
    59    32    55 1   
@<TRIPOS>SUBSTRUCTURE
     1 IP7         1 TEMP              0 ****  ****    0 ROOT
