@<TRIPOS>MOLECULE
IP8
   19    18     1     0     0
SMALL
bcc


@<TRIPOS>ATOM
      1 O           0.7130   -0.7910   -0.7660 o         1 IP8     -0.933500
      2 C1          1.0650    2.1000   -1.6290 c3        1 IP8      0.251400
      3 O1          1.7440    1.5090   -0.6000 os        1 IP8     -0.565200
      4 P1          2.0850   -0.1830   -0.8590 p5        1 IP8      1.320900
      5 C2          1.8990    3.2450   -2.2580 c3        1 IP8     -0.099200
      6 O2          3.0490   -0.4910    0.2500 o         1 IP8     -0.933500
      7 C3          1.8270    3.2430   -3.7440 c2        1 IP8     -0.013400
      8 O3          2.6590   -0.1320   -2.2570 o         1 IP8     -0.933500
      9 C4          2.6320    2.1890   -4.4090 c3        1 IP8     -0.116900
     10 C5          1.0950    4.1280   -4.4350 c2        1 IP8     -0.353000
     11 H1          0.1100    2.5740   -1.2450 h1        1 IP8     -0.014300
     12 H1A         0.7940    1.3470   -2.4220 h1        1 IP8     -0.014300
     13 H2          2.9660    3.1020   -1.9420 hc        1 IP8      0.028700
     14 H2A         1.5490    4.2290   -1.8530 hc        1 IP8      0.028700
     15 H4          2.2920    2.0100   -5.4570 hc        1 IP8      0.064367
     16 H4A         3.7060    2.5010   -4.4340 hc        1 IP8      0.064367
     17 H4B         2.5740    1.2220   -3.8100 hc        1 IP8      0.064367
     18 H5          0.4940    4.9020   -3.9450 ha        1 IP8      0.075500
     19 H5A         1.0330    4.1130   -5.5280 ha        1 IP8      0.075500
@<TRIPOS>BOND
     1    1    4 1   
     2    2    3 1   
     3    2    5 1   
     4    2   11 1   
     5    2   12 1   
     6    3    4 1   
     7    4    6 1   
     8    4    8 1   
     9    5    7 1   
    10    5   13 1   
    11    5   14 1   
    12    7    9 1   
    13    7   10 2   
    14    9   15 1   
    15    9   16 1   
    16    9   17 1   
    17   10   18 1   
    18   10   19 1   
@<TRIPOS>SUBSTRUCTURE
     1 IP8         1 TEMP              0 ****  ****    0 ROOT
