@<TRIPOS>MOLECULE
molecule
   19    18     1     0     0
SMALL
bcc


@<TRIPOS>ATOM
      1 O            0.0000     0.0000     0.0000 o          1 IP8      -0.912167
      2 C1           1.6280     1.6580    -2.0900 c3         1 IP8       0.230400
      3 O1           2.0170     1.3160    -0.7590 os         1 IP8      -0.581200
      4 P1           1.4800     0.0000     0.0000 p5         1 IP8       1.182900
      5 C2           2.3170     2.9610    -2.5030 c3         1 IP8      -0.064200
      6 O2           2.0160     0.0000     1.5180 o          1 IP8      -0.912167
      7 C3           1.9070     3.3230    -3.9070 c2         1 IP8      -0.086400
      8 O3           2.0170    -1.3150    -0.7590 o          1 IP8      -0.912167
      9 C4           2.6420     2.7300    -5.0830 c3         1 IP8      -0.055900
     10 C5           0.9130     4.1520    -4.1060 c2         1 IP8      -0.281000
     11 H1           0.5530     1.7900    -2.1300 h1         1 IP8       0.011200
     12 H1A          1.9200     0.8650    -2.7670 h1         1 IP8       0.011200
     13 H2           2.0250     3.7540    -1.8260 hc         1 IP8       0.040700
     14 H2A          3.3910     2.8290    -2.4630 hc         1 IP8       0.040700
     15 H4           1.9640     2.1090    -5.6560 hc         1 IP8       0.031367
     16 H4A          3.4690     2.1290    -4.7260 hc         1 IP8       0.031367
     17 H4B          3.0200     3.5280    -5.7110 hc         1 IP8       0.031367
     18 H5           0.6180     4.4120    -5.1150 ha         1 IP8       0.096000
     19 H5A          0.3840     4.5770    -3.2610 ha         1 IP8       0.096000
@<TRIPOS>BOND
     1     1     4 1
     2     2     5 1
     3     2     3 1
     4     2    11 1
     5     2    12 1
     6     4     3 1
     7     8     4 1
     8     4     6 1
     9     7     5 1
    10     5    13 1
    11     5    14 1
    12    10     7 2
    13     7     9 1
    14     9    15 1
    15     9    16 1
    16     9    17 1
    17    10    18 1
    18    10    19 1
@<TRIPOS>SUBSTRUCTURE
     1 IP8         1 TEMP              0 ****  ****    0 ROOT
