@<TRIPOS>MOLECULE
molecule
   12    11     1     0     0
SMALL
bcc


@<TRIPOS>ATOM
      1 C1           0.0000     0.0000     0.0000 c3         1 IPA      -0.103600
      2 C2           1.5310     0.0000     0.0000 c3         1 IPA       0.142100
      3 C3           2.0400     0.0000     1.4420 c3         1 IPA      -0.103600
      4 O2           2.0070    -1.1650    -0.6740 oh         1 IPA      -0.606800
      5 H11         -0.3610     0.8740     0.5280 hc         1 IPA       0.041367
      6 H12         -0.3610    -0.8940     0.4930 hc         1 IPA       0.041367
      7 H13         -0.3610     0.0200    -1.0210 hc         1 IPA       0.041367
      8 H2           1.8910     0.8850    -0.5100 h1         1 IPA       0.025700
      9 H31          1.6950    -0.8940     1.9470 hc         1 IPA       0.041367
     10 H32          3.1240     0.0200     1.4420 hc         1 IPA       0.041367
     11 H33          1.6630     0.8750     1.9590 hc         1 IPA       0.041367
     12 HO2          2.5310    -0.9080    -1.4150 ho         1 IPA       0.399000
@<TRIPOS>BOND
     1     1     2 1
     2     1     5 1
     3     1     6 1
     4     1     7 1
     5     2     3 1
     6     2     4 1
     7     2     8 1
     8     3     9 1
     9     3    10 1
    10     3    11 1
    11     4    12 1
@<TRIPOS>SUBSTRUCTURE
     1 IPA         1 TEMP              0 ****  ****    0 ROOT
