@<TRIPOS>MOLECULE
IPA
   12    11     1     0     0
SMALL
bcc


@<TRIPOS>ATOM
      1 C1          0.0910   -0.0260   -0.0810 c3        1 IPA     -0.111600
      2 C2          1.6020    0.0500    0.0440 c3        1 IPA      0.139100
      3 C3          2.0420    0.0350    1.4960 c3        1 IPA     -0.111600
      4 O2          2.2270   -1.0690   -0.5780 oh        1 IPA     -0.601800
      5 H11        -0.2840   -0.9840    0.3520 hc        1 IPA      0.043367
      6 H12        -0.3800    0.8250    0.4630 hc        1 IPA      0.043367
      7 H13        -0.2130    0.0210   -1.1540 hc        1 IPA      0.043367
      8 H2          1.9730    0.9910   -0.4560 h1        1 IPA      0.028700
      9 H31         1.6690   -0.8860    2.0050 hc        1 IPA      0.043367
     10 H32         3.1570    0.0430    1.5570 hc        1 IPA      0.043367
     11 H33         1.6370    0.9330    2.0180 hc        1 IPA      0.043367
     12 HO2         1.8790   -1.1190   -1.4760 ho        1 IPA      0.397000
@<TRIPOS>BOND
     1    1    2 1   
     2    1    5 1   
     3    1    6 1   
     4    1    7 1   
     5    2    3 1   
     6    2    4 1   
     7    2    8 1   
     8    3    9 1   
     9    3   10 1   
    10    3   11 1   
    11    4   12 1   
@<TRIPOS>SUBSTRUCTURE
     1 IPA         1 TEMP              0 ****  ****    0 ROOT
