@<TRIPOS>MOLECULE
IPB
   25    25     1     0     0
SMALL
bcc


@<TRIPOS>ATOM
      1 C4          0.0100    0.0240   -0.0310 ca        1 IPB     -0.099300
      2 C5          1.4070   -0.0030    0.0000 ca        1 IPB     -0.093000
      3 C6          2.1060   -0.0020    1.2040 ca        1 IPB     -0.164000
      4 C1          1.4190    0.0260    2.4230 ca        1 IPB     -0.042300
      5 C2          0.0230    0.0510    2.4190 ca        1 IPB     -0.214000
      6 C3         -0.6730    0.0500    1.2020 ca        1 IPB      0.128100
      7 C8         -0.7340    0.0220   -1.3280 c3        1 IPB     -0.019400
      8 C7          2.1620    0.0430    3.7040 c3        1 IPB     -0.055800
      9 O          -2.0510    0.0750    1.1630 oh        1 IPB     -0.501100
     10 C9         -0.3950    1.2520   -2.1490 c3        1 IPB     -0.086100
     11 C10        -0.4430   -1.2400   -2.1190 c3        1 IPB     -0.086100
     12 H5          1.9620   -0.0250   -0.9510 ha        1 IPB      0.135000
     13 H6          3.2060   -0.0240    1.1990 ha        1 IPB      0.132000
     14 H2         -0.5310    0.0710    3.3690 ha        1 IPB      0.131000
     15 H8         -1.8410    0.0460   -1.1080 hc        1 IPB      0.071700
     16 H73         3.1460   -0.4780    3.6030 hc        1 IPB      0.045367
     17 H72         2.3550    1.1000    4.0170 hc        1 IPB      0.045367
     18 H71         1.5770   -0.4600    4.5140 hc        1 IPB      0.045367
     19 H          -2.3730    0.0910    2.0760 ho        1 IPB      0.418000
     20 H93        -0.6380    2.1800   -1.5780 hc        1 IPB      0.034700
     21 H92         0.6910    1.2690   -2.4080 hc        1 IPB      0.034700
     22 H91        -0.9860    1.2510   -3.0970 hc        1 IPB      0.034700
     23 H103        0.6410   -1.3050   -2.3770 hc        1 IPB      0.034700
     24 H102       -0.7220   -2.1430   -1.5260 hc        1 IPB      0.034700
     25 H101       -1.0340   -1.2390   -3.0670 hc        1 IPB      0.034700
@<TRIPOS>BOND
     1    1    2 ar  
     2    1    6 ar  
     3    1    7 1   
     4    2    3 ar  
     5    2   12 1   
     6    3    4 ar  
     7    3   13 1   
     8    4    5 ar  
     9    4    8 1   
    10    5    6 ar  
    11    5   14 1   
    12    6    9 1   
    13    7   10 1   
    14    7   11 1   
    15    7   15 1   
    16    8   16 1   
    17    8   17 1   
    18    8   18 1   
    19    9   19 1   
    20   10   20 1   
    21   10   21 1   
    22   10   22 1   
    23   11   23 1   
    24   11   24 1   
    25   11   25 1   
@<TRIPOS>SUBSTRUCTURE
     1 IPB         1 TEMP              0 ****  ****    0 ROOT
