@<TRIPOS>MOLECULE
molecule
   25    25     1     0     0
SMALL
bcc


@<TRIPOS>ATOM
      1 C4           0.0000     0.0000     0.0000 ca         1 IPB      -0.098300
      2 C5           1.3810     0.0000     0.0000 ca         1 IPB      -0.101000
      3 C6           2.0750     0.0000     1.1950 ca         1 IPB      -0.146000
      4 C1           1.3870     0.0000     2.3950 ca         1 IPB      -0.063300
      5 C2           0.0060     0.0000     2.4010 ca         1 IPB      -0.187000
      6 C3          -0.6910     0.0040     1.2010 ca         1 IPB       0.121100
      7 C8          -0.7540    -0.0010    -1.3050 c3         1 IPB      -0.028400
      8 C7           2.1450    -0.0000     3.6970 c3         1 IPB      -0.048800
      9 O           -2.0490     0.0040     1.2060 oh         1 IPB      -0.512100
     10 C9          -0.3870     1.2490    -2.1060 c3         1 IPB      -0.084100
     11 C10         -0.3850    -1.2490    -2.1070 c3         1 IPB      -0.084100
     12 H5           1.9220    -0.0020    -0.9390 ha         1 IPB       0.135000
     13 H6           3.1580    -0.0000     1.1930 ha         1 IPB       0.131000
     14 H2          -0.5320     0.0020     3.3410 ha         1 IPB       0.134000
     15 H8          -1.8190    -0.0020    -1.1060 hc         1 IPB       0.071700
     16 H73          1.7700    -0.7930     4.3330 hc         1 IPB       0.044033
     17 H72          2.0130     0.9540     4.1930 hc         1 IPB       0.044033
     18 H71          3.1990    -0.1620     3.5020 hc         1 IPB       0.044033
     19 H           -2.3620     0.7030     1.7550 ho         1 IPB       0.419000
     20 H93          0.6120     1.1380    -2.5100 hc         1 IPB       0.034700
     21 H92         -1.0930     1.3770    -2.9180 hc         1 IPB       0.034700
     22 H91         -0.4210     2.1160    -1.4580 hc         1 IPB       0.034700
     23 H103        -1.0890    -1.3770    -2.9200 hc         1 IPB       0.034700
     24 H102        -0.4180    -2.1170    -1.4600 hc         1 IPB       0.034700
     25 H101         0.6150    -1.1370    -2.5100 hc         1 IPB       0.034700
@<TRIPOS>BOND
     1     1     2 ar
     2     1     6 ar
     3     1     7 1
     4     2     3 ar
     5     2    12 1
     6     3     4 ar
     7     3    13 1
     8     4     5 ar
     9     4     8 1
    10     5     6 ar
    11     5    14 1
    12     6     9 1
    13     7    10 1
    14     7    11 1
    15     7    15 1
    16     8    16 1
    17     8    17 1
    18     8    18 1
    19     9    19 1
    20    10    20 1
    21    10    21 1
    22    10    22 1
    23    11    23 1
    24    11    24 1
    25    11    25 1
@<TRIPOS>SUBSTRUCTURE
     1 IPB         1 TEMP              0 ****  ****    0 ROOT
