@<TRIPOS>MOLECULE
IPC
   47    49     1     0     0
SMALL
bcc


@<TRIPOS>ATOM
      1 N1           0.0000     0.0000     0.0000 n          1 IPC       0.045000
      2 C2           1.4650     0.0000     0.0000 c3         1 IPC       0.038700
      3 C3           1.9750     0.0000     1.4420 c3         1 IPC      -0.036100
      4 C4           1.9750    -1.2500    -0.7210 c3         1 IPC      -0.036100
      5 C5          -0.6740    -0.9240     0.7140 c          1 IPC       0.635700
      6 O6          -0.0800    -1.8660     1.2030 o          1 IPC      -0.688100
      7 C7          -2.1330    -0.7920     0.9030 ca         1 IPC      -0.115600
      8 C8          -2.9350    -0.3300    -0.1430 ca         1 IPC      -0.063000
      9 C9          -4.2990    -0.2150     0.0380 ca         1 IPC      -0.115000
     10 C10         -4.8690    -0.5450     1.2550 ca         1 IPC      -0.086300
     11 C11         -4.0780    -0.9990     2.2960 ca         1 IPC      -0.115000
     12 C12         -2.7150    -1.1240     2.1270 ca         1 IPC      -0.063000
     13 C13         -6.3570    -0.4110     1.4460 c3         1 IPC       0.065200
     14 C14         -0.6990     0.9540    -0.7380 cc         1 IPC      -0.196400
     15 C15         -1.3040     2.0420    -0.1090 cd         1 IPC       0.153300
     16 S16         -2.0280     2.9170    -1.4850 ss         1 IPC      -0.277800
     17 C17         -1.5130     1.8160    -2.7920 cd         1 IPC       0.004900
     18 C18         -0.8110     0.8450    -2.1020 cc         1 IPC      -0.131000
     19 C19         -1.3310     2.3710     1.2660 c          1 IPC       0.981200
     20 O20         -1.9710     3.4850     1.6800 o          1 IPC      -0.851800
     21 O21         -0.7770     1.6510     2.0750 o          1 IPC      -0.851800
     22 C22         -1.7680     1.9180    -4.2430 ca         1 IPC       0.053000
     23 C23         -0.7660     1.5940    -5.1580 ca         1 IPC      -0.100500
     24 C24         -1.0140     1.6850    -6.5110 ca         1 IPC      -0.105000
     25 C25         -2.2500     2.1090    -6.9640 ca         1 IPC      -0.123000
     26 C26         -3.2480     2.4370    -6.0630 ca         1 IPC      -0.105000
     27 C27         -3.0150     2.3440    -4.7070 ca         1 IPC      -0.100500
     28 H2           1.8260     0.8840    -0.5110 h1         1 IPC       0.026700
     29 H31          1.5420     0.8350     1.9790 hc         1 IPC       0.016367
     30 H32          1.6920    -0.9270     1.9260 hc         1 IPC       0.016367
     31 H33          3.0550     0.0920     1.4430 hc         1 IPC       0.016367
     32 H41          2.8030    -0.9820    -1.3650 hc         1 IPC       0.016367
     33 H42          1.1760    -1.6740    -1.3170 hc         1 IPC       0.016367
     34 H43          2.3060    -1.9780     0.0090 hc         1 IPC       0.016367
     35 H8          -2.4900    -0.0710    -1.0960 ha         1 IPC       0.123000
     36 H9          -4.9230     0.1410    -0.7720 ha         1 IPC       0.096500
     37 H11         -4.5300    -1.2550     3.2470 ha         1 IPC       0.096500
     38 H12         -2.0970    -1.4790     2.9430 ha         1 IPC       0.123000
     39 H131        -6.5640     0.4430     2.0800 hc         1 IPC      -0.000300
     40 H132        -6.8340    -0.2700     0.4830 hc         1 IPC      -0.000300
     41 H133        -6.7440    -1.3090     1.9130 hc         1 IPC      -0.000300
     42 H18         -0.3590     0.0130    -2.6280 ha         1 IPC       0.111000
     43 H23          0.2030     1.2620    -4.8050 ha         1 IPC       0.114500
     44 H24         -0.2360     1.4310    -7.2210 ha         1 IPC       0.095000
     45 H25         -2.4390     2.1810    -8.0280 ha         1 IPC       0.093000
     46 H26         -4.2140     2.7680    -6.4240 ha         1 IPC       0.095000
     47 H27         -3.7970     2.6020    -4.0030 ha         1 IPC       0.114500
@<TRIPOS>BOND
     1     1     2 1   
     2     1     5 1   
     3     1    14 1   
     4     2     3 1   
     5     2     4 1   
     6     2    28 1   
     7     3    29 1   
     8     3    30 1   
     9     3    31 1   
    10     4    32 1   
    11     4    33 1   
    12     4    34 1   
    13     5     6 2   
    14     5     7 1   
    15     7     8 ar  
    16     7    12 ar  
    17     8     9 ar  
    18     8    35 1   
    19     9    10 ar  
    20     9    36 1   
    21    10    11 ar  
    22    10    13 1   
    23    11    12 ar  
    24    11    37 1   
    25    12    38 1   
    26    13    39 1   
    27    13    40 1   
    28    13    41 1   
    29    14    15 2   
    30    14    18 1   
    31    15    16 1   
    32    15    19 1   
    33    16    17 1   
    34    17    18 2   
    35    17    22 1   
    36    18    42 1   
    37    19    20 1   
    38    19    21 1   
    39    22    23 ar  
    40    22    27 ar  
    41    23    24 ar  
    42    23    43 1   
    43    24    25 ar  
    44    24    44 1   
    45    25    26 ar  
    46    25    45 1   
    47    26    27 ar  
    48    26    46 1   
    49    27    47 1   
@<TRIPOS>SUBSTRUCTURE
     1 IPC         1 TEMP              0 ****  ****    0 ROOT
