@<TRIPOS>MOLECULE
IPD
   27    26     1     0     0
SMALL
bcc


@<TRIPOS>ATOM
      1 C1         -0.0870    0.1270    0.3200 c3        1 IPD      0.176000
      2 C2          1.4030   -0.1440   -0.0270 c3        1 IPD     -0.026000
      3 C3          2.1870   -0.2340    1.2960 c3        1 IPD     -0.018000
      4 C4          1.6270   -1.3450    2.1950 c3        1 IPD     -0.026000
      5 C5          0.1030   -1.1660    2.4310 c3        1 IPD      0.176000
      6 C6         -0.5510   -1.0120    1.1290 c2        1 IPD     -0.630000
      7 O1         -0.8240    0.3290   -0.8800 oh        1 IPD     -0.372500
      8 O2          1.5710   -1.3620   -0.7300 oh        1 IPD     -0.374000
      9 O3          3.5710   -0.4940    1.0600 oh        1 IPD     -0.380000
     10 O4          2.2800   -1.3440    3.4660 oh        1 IPD     -0.374000
     11 O5         -0.4070   -2.2900    3.1450 oh        1 IPD     -0.372500
     12 O6         -1.7740   -1.5600    0.8770 oh        1 IPD     -0.219000
     13 O7         -2.1460    0.4440   -2.9280 o         1 IPD     -1.155667
     14 O8         -2.4020    2.6800   -1.7130 o         1 IPD     -1.155667
     15 O9         -0.3110    2.2260   -3.0730 o         1 IPD     -1.155667
     16 H1         -1.2870   -0.4920   -1.1180 ho        1 IPD      0.213500
     17 H2         -0.1320    1.1290    0.8450 h1        1 IPD      0.009500
     18 H3          1.8310    0.6520   -0.6890 h1        1 IPD      0.093500
     19 H4          2.1670    0.7510    1.8340 h1        1 IPD      0.099000
     20 H5          1.8080   -2.3440    1.7080 h1        1 IPD      0.093500
     21 H6         -0.0090   -0.2590    3.1110 h1        1 IPD      0.009500
     22 HO2         0.8140   -1.9220   -0.4750 ho        1 IPD      0.214000
     23 HO3         3.6030   -1.1230    0.3280 ho        1 IPD      0.208000
     24 HO4         3.2150   -1.1960    3.2850 ho        1 IPD      0.214000
     25 HO5         0.1560   -2.3700    3.9240 ho        1 IPD      0.213500
     26 HO6        -2.4400   -0.9760    1.2890 ho        1 IPD      0.088000
     27 P1         -1.5630    1.7230   -2.4660 p3        1 IPD      2.452000
@<TRIPOS>BOND
     1    1    2 1   
     2    1    6 1   
     3    1    7 1   
     4    1   17 1   
     5    2    3 1   
     6    2    8 1   
     7    2   18 1   
     8    3    4 1   
     9    3    9 1   
    10    3   19 1   
    11    4    5 1   
    12    4   10 1   
    13    4   20 1   
    14    5    6 1   
    15    5   11 1   
    16    5   21 1   
    17    6   12 1   
    18    7   16 1   
    19    8   22 1   
    20    9   23 1   
    21   10   24 1   
    22   11   25 1   
    23   12   26 1   
    24   13   27 1   
    25   14   27 1   
    26   15   27 1   
@<TRIPOS>SUBSTRUCTURE
     1 IPD         1 TEMP              0 ****  ****    0 ROOT
