@<TRIPOS>MOLECULE
molecule
   27    27     1     0     0
SMALL
bcc


@<TRIPOS>ATOM
      1 C1           0.0000     0.0000     0.0000 c3         1 IPD       0.230100
      2 C2           1.5300     0.0000     0.0000 c3         1 IPD       0.122600
      3 C3           2.0400     0.0000     1.4420 c3         1 IPD       0.114100
      4 C4           1.5310    -1.2490     2.1640 c3         1 IPD       0.130100
      5 C5           0.0010    -1.2500     2.1640 c3         1 IPD       0.114100
      6 C6          -0.5100    -1.2500     0.7220 c3         1 IPD       0.122600
      7 O1          -0.4780    -0.0000    -1.3470 os         1 IPD      -0.546200
      8 O2           2.0060    -1.1670    -0.6740 oh         1 IPD      -0.578300
      9 O3           3.4700     0.0000     1.4420 oh         1 IPD      -0.621300
     10 O4           2.0070    -1.2490     3.5110 oh         1 IPD      -0.626800
     11 O5          -0.4750    -2.4160     2.8380 oh         1 IPD      -0.621300
     12 O6          -1.9390    -1.2500     0.7230 oh         1 IPD      -0.578300
     13 O7          -2.6760     1.3440    -1.0460 o          1 IPD      -0.901833
     14 O8          -0.6000     2.5120    -1.9790 o          1 IPD      -0.901833
     15 O9          -1.8470     0.7900    -3.4020 o          1 IPD      -0.901833
     16 H1          -0.3590     0.8830     0.5150 h1         1 IPD       0.059700
     17 H2           1.8890     0.8870    -0.5080 h1         1 IPD       0.059200
     18 H3           1.6750     0.8830     1.9530 h1         1 IPD       0.049200
     19 H4           1.8890    -2.1320     1.6490 h1         1 IPD       0.063700
     20 H5          -0.3580    -0.3620     2.6720 h1         1 IPD       0.049200
     21 H6          -0.1450    -2.1330     0.2120 h1         1 IPD       0.059200
     22 HO2          2.5570    -0.9110    -1.3950 ho         1 IPD       0.389000
     23 HO3          3.7840     0.8310     1.7570 ho         1 IPD       0.388500
     24 HO4          2.5360    -2.0160     3.6570 ho         1 IPD       0.390000
     25 HO5         -0.9800    -2.1600     3.5910 ho         1 IPD       0.388500
     26 HO6         -2.2540    -2.1020     0.4710 ho         1 IPD       0.389000
     27 P1          -1.4060     1.1700    -1.9480 p5         1 IPD       1.160900
@<TRIPOS>BOND
     1     1     2 1
     2     1     6 1
     3     1     7 1
     4     1    16 1
     5     2     3 1
     6     2     8 1
     7     2    17 1
     8     3     4 1
     9     3     9 1
    10     3    18 1
    11     4     5 1
    12     4    10 1
    13     4    19 1
    14     5     6 1
    15     5    11 1
    16     5    20 1
    17     6    12 1
    18     6    21 1
    19    27     7 1
    20    27    13 1
    21    27    14 1
    22    27    15 1
    23     8    22 1
    24     9    23 1
    25    10    24 1
    26    11    25 1
    27    12    26 1
@<TRIPOS>SUBSTRUCTURE
     1 IPD         1 TEMP              0 ****  ****    0 ROOT
