@<TRIPOS>MOLECULE
molecule
   23    22     1     0     0
SMALL
bcc


@<TRIPOS>ATOM
      1 C1           0.0000     0.0000     0.0000 c3         1 IPE       0.171400
      2 O1           1.4290     0.0000     0.0000 os         1 IPE      -0.556200
      3 C2          -0.5100     0.0000     1.4420 c3         1 IPE      -0.058200
      4 C3          -2.0170     0.0010     1.4430 c2         1 IPE      -0.082400
      5 C4          -2.6720    -1.1290     1.5410 c2         1 IPE      -0.280000
      6 C5          -2.7700     1.3020     1.3290 c3         1 IPE      -0.055900
      7 PA           1.8940    -0.0000    -1.5410 p5         1 IPE       1.238800
      8 O1A          1.2700    -1.1430    -2.2460 o          1 IPE      -0.800000
      9 O2A          1.4360     1.3760    -2.2400 o          1 IPE      -0.800000
     10 O3A          3.4970    -0.1330    -1.6190 os         1 IPE      -0.650800
     11 PB           3.8590    -0.5260    -3.1370 p5         1 IPE       1.176900
     12 O1B          3.8270     0.7960    -4.0550 o          1 IPE      -0.917833
     13 O2B          2.8690    -1.5020    -3.6440 o          1 IPE      -0.917833
     14 O3B          5.3300    -1.1780    -3.1870 o          1 IPE      -0.917833
     15 H11         -0.3610     0.8850    -0.5110 h1         1 IPE       0.049700
     16 H12         -0.3610    -0.8850    -0.5110 h1         1 IPE       0.049700
     17 H21         -0.1480     0.8840     1.9530 hc         1 IPE       0.035200
     18 H22         -0.1490    -0.8850     1.9530 hc         1 IPE       0.035200
     19 H41         -3.7560    -1.1280     1.5410 ha         1 IPE       0.095000
     20 H42         -2.1310    -2.0640     1.6220 ha         1 IPE       0.095000
     21 H51         -2.0670     2.1270     1.3270 hc         1 IPE       0.030367
     22 H52         -3.3400     1.3100     0.4080 hc         1 IPE       0.030367
     23 H53         -3.4430     1.4040     2.1720 hc         1 IPE       0.030367
@<TRIPOS>BOND
     1     1     2 1
     2     1     3 1
     3     1    15 1
     4     1    16 1
     5     2     7 1
     6     3     4 1
     7     3    17 1
     8     3    18 1
     9     4     5 2
    10     4     6 1
    11     5    19 1
    12     5    20 1
    13     6    21 1
    14     6    22 1
    15     6    23 1
    16     7     8 1
    17     7     9 1
    18     7    10 1
    19    10    11 1
    20    11    12 1
    21    11    13 1
    22    11    14 1
@<TRIPOS>SUBSTRUCTURE
     1 IPE         1 TEMP              0 ****  ****    0 ROOT
