@<TRIPOS>MOLECULE
molecule
   13    13     1     0     0
SMALL
bcc


@<TRIPOS>ATOM
      1 C1           0.0000     0.0000     0.0000 ca         1 IPH       0.104100
      2 C2           1.3870     0.0000     0.0000 ca         1 IPH      -0.152000
      3 C3           2.0770     0.0000     1.1950 ca         1 IPH      -0.116000
      4 C4           1.3860     0.0010     2.3940 ca         1 IPH      -0.137000
      5 C5           0.0030     0.0000     2.3960 ca         1 IPH      -0.116000
      6 C6          -0.6900     0.0060     1.2030 ca         1 IPH      -0.152000
      7 O1          -0.6810     0.0000    -1.1760 oh         1 IPH      -0.523100
      8 H2           1.9280    -0.0030    -0.9380 ha         1 IPH       0.139000
      9 H3           3.1600     0.0000     1.1950 ha         1 IPH       0.132000
     10 H4           1.9290    -0.0010     3.3310 ha         1 IPH       0.131000
     11 H5          -0.5360     0.0030     3.3360 ha         1 IPH       0.132000
     12 H6          -1.7730     0.0060     1.2060 ha         1 IPH       0.139000
     13 HO1         -0.8400    -0.8890    -1.4470 ho         1 IPH       0.418000
@<TRIPOS>BOND
     1     1     2 ar
     2     1     6 ar
     3     1     7 1
     4     2     3 ar
     5     2     8 1
     6     3     4 ar
     7     3     9 1
     8     4     5 ar
     9     4    10 1
    10     5     6 ar
    11     5    11 1
    12     6    12 1
    13     7    13 1
@<TRIPOS>SUBSTRUCTURE
     1 IPH         1 TEMP              0 ****  ****    0 ROOT
