@<TRIPOS>MOLECULE
IPH
   13    13     1     0     0
SMALL
bcc


@<TRIPOS>ATOM
      1 C1          0.0780   -0.1250   -0.0400 ca        1 IPH      0.123100
      2 C2          1.4770    0.0110   -0.0210 ca        1 IPH     -0.185000
      3 C3          2.1280    0.0860    1.2060 ca        1 IPH     -0.094500
      4 C4          1.4050    0.0280    2.3990 ca        1 IPH     -0.166000
      5 C5          0.0180   -0.1060    2.3690 ca        1 IPH     -0.094500
      6 C6         -0.6570   -0.1840    1.1520 ca        1 IPH     -0.185000
      7 O1         -0.5140   -0.1950   -1.2810 oh        1 IPH     -0.499100
      8 H2          2.0300    0.0540   -0.9690 ha        1 IPH      0.141500
      9 H3          3.2230    0.1920    1.2330 ha        1 IPH      0.133000
     10 H4          1.9310    0.0890    3.3620 ha        1 IPH      0.133000
     11 H5         -0.5510   -0.1520    3.3100 ha        1 IPH      0.133000
     12 H6         -1.7500   -0.2900    1.1260 ha        1 IPH      0.141500
     13 HO1        -1.4690   -0.2860   -1.1510 ho        1 IPH      0.418000
@<TRIPOS>BOND
     1    1    2 ar  
     2    1    6 ar  
     3    1    7 1   
     4    2    3 ar  
     5    2    8 1   
     6    3    4 ar  
     7    3    9 1   
     8    4    5 ar  
     9    4   10 1   
    10    5    6 ar  
    11    5   11 1   
    12    6   12 1   
    13    7   13 1   
@<TRIPOS>SUBSTRUCTURE
     1 IPH         1 TEMP              0 ****  ****    0 ROOT
