@<TRIPOS>MOLECULE
IPI
   20    19     1     0     0
SMALL
bcc


@<TRIPOS>ATOM
      1 P          -0.0320    0.0560    0.0480 p5        1 IPI      1.217700
      2 O1          1.4800    0.1100    0.0680 o         1 IPI     -0.962167
      3 O2         -0.6920    0.2240    1.4020 o         1 IPI     -0.962167
      4 C5         -0.4940    1.5690   -0.8440 c3        1 IPI     -0.274600
      5 C4         -1.9800    1.5300   -0.8560 c3        1 IPI     -0.052400
      6 C2         -2.6500    2.7310   -1.5200 c3        1 IPI     -0.072700
      7 C3         -2.4750    2.6940   -3.0220 c3        1 IPI     -0.075100
      8 C1         -4.1220    2.7890   -1.1670 c3        1 IPI     -0.075100
      9 OXT        -0.6170   -1.0530   -0.8020 o         1 IPI     -0.962167
     10 H51C       -0.0500    1.5340   -1.8580 hc        1 IPI      0.009700
     11 H52C       -0.0920    2.4450   -0.2980 hc        1 IPI      0.009700
     12 H41C       -2.2950    0.5800   -1.3670 hc        1 IPI      0.062200
     13 H42C       -2.3200    1.4560    0.2150 hc        1 IPI      0.062200
     14 HA         -2.1570    3.6660   -1.1300 hc        1 IPI      0.020700
     15 H31C       -2.9920    1.8030   -3.4540 hc        1 IPI      0.008533
     16 H32C       -2.8960    3.6120   -3.5010 hc        1 IPI      0.008533
     17 H33C       -1.3880    2.6210   -3.2700 hc        1 IPI      0.008533
     18 H11C       -4.2490    2.8830   -0.0620 hc        1 IPI      0.008533
     19 H12C       -4.6370    1.8550   -1.5010 hc        1 IPI      0.008533
     20 H13C       -4.6210    3.6610   -1.6590 hc        1 IPI      0.008533
@<TRIPOS>BOND
     1    1    2 1   
     2    1    3 1   
     3    1    4 1   
     4    1    9 1   
     5    4    5 1   
     6    4   10 1   
     7    4   11 1   
     8    5    6 1   
     9    5   12 1   
    10    5   13 1   
    11    6    7 1   
    12    6    8 1   
    13    6   14 1   
    14    7   15 1   
    15    7   16 1   
    16    7   17 1   
    17    8   18 1   
    18    8   19 1   
    19    8   20 1   
@<TRIPOS>SUBSTRUCTURE
     1 IPI         1 TEMP              0 ****  ****    0 ROOT
