@<TRIPOS>MOLECULE
molecule
   20    19     1     0     0
SMALL
bcc


@<TRIPOS>ATOM
      1 P            0.0000     0.0000     0.0000 p5         1 IPI       1.058700
      2 O1           1.6100     0.0000     0.0000 o          1 IPI      -0.922500
      3 O2          -0.4930     0.0000     1.3950 o          1 IPI      -0.922500
      4 C5          -0.6070     1.4880    -0.8600 c3         1 IPI      -0.248600
      5 C4          -2.1330     1.5530    -0.7520 c3         1 IPI      -0.037400
      6 C2          -2.6420     2.8020    -1.4740 c3         1 IPI      -0.081700
      7 C3          -2.3480     2.6830    -2.9690 c3         1 IPI      -0.081100
      8 C1          -4.1510     2.9340    -1.2600 c3         1 IPI      -0.081100
      9 OXT         -0.5370    -1.3140    -0.7590 o          1 IPI      -0.922500
     10 H51C        -0.3210     1.4440    -1.9040 hc         1 IPI       0.015200
     11 H52C        -0.1750     2.3710    -0.4040 hc         1 IPI       0.015200
     12 H41C        -2.4190     1.5970     0.2920 hc         1 IPI       0.046200
     13 H42C        -2.5650     0.6700    -1.2080 hc         1 IPI       0.046200
     14 HA          -2.1430     3.6780    -1.0760 hc         1 IPI       0.028700
     15 H31C        -2.5110     1.6610    -3.2890 hc         1 IPI       0.014367
     16 H32C        -1.3170     2.9600    -3.1580 hc         1 IPI       0.014367
     17 H33C        -3.0060     3.3430    -3.5210 hc         1 IPI       0.014367
     18 H11C        -4.3630     2.9760    -0.1980 hc         1 IPI       0.014367
     19 H12C        -4.6540     2.0790    -1.6950 hc         1 IPI       0.014367
     20 H13C        -4.5050     3.8420    -1.7340 hc         1 IPI       0.014367
@<TRIPOS>BOND
     1     1     2 1
     2     1     3 1
     3     1     4 1
     4     1     9 1
     5     4     5 1
     6     5     6 1
     7     6     7 1
     8     6     8 1
     9     4    10 1
    10     4    11 1
    11     5    12 1
    12     5    13 1
    13     6    14 1
    14     7    15 1
    15     7    16 1
    16     7    17 1
    17     8    18 1
    18     8    19 1
    19     8    20 1
@<TRIPOS>SUBSTRUCTURE
     1 IPI         1 TEMP              0 ****  ****    0 ROOT
