@<TRIPOS>MOLECULE
molecule
   29    30     1     0     0
SMALL
bcc


@<TRIPOS>ATOM
      1 O16          0.0000     0.0000     0.0000 o          1 IPJ      -0.546100
      2 C7           1.2170     0.0000     0.0000 c          1 IPJ       0.582900
      3 C2           1.9570     0.0000     1.2810 ca         1 IPJ      -0.168600
      4 C3           3.3530     0.0070     1.2850 ca         1 IPJ      -0.081000
      5 C4           4.0360     0.0070     2.4840 ca         1 IPJ      -0.143000
      6 C5           3.3410     0.0010     3.6800 ca         1 IPJ      -0.102000
      7 C6           1.9570    -0.0040     3.6830 ca         1 IPJ      -0.143000
      8 C1           1.2620     0.0010     2.4910 ca         1 IPJ      -0.081000
      9 C8           1.9270    -0.0060    -1.2280 ce         1 IPJ      -0.277200
     10 C9           1.2500    -0.0130    -2.3990 cf         1 IPJ      -0.009200
     11 C10          1.9860    -0.0190    -3.6710 ca         1 IPJ      -0.095800
     12 C15          1.2880    -0.0260    -4.8850 ca         1 IPJ      -0.091000
     13 C14          1.9810    -0.0310    -6.0740 ca         1 IPJ      -0.157500
     14 C13          3.3720    -0.0310    -6.0710 ca         1 IPJ       0.120100
     15 O17          4.0510    -0.0360    -7.2460 oh         1 IPJ      -0.521100
     16 C12          4.0690    -0.0240    -4.8680 ca         1 IPJ      -0.157500
     17 C11          3.3860    -0.0130    -3.6730 ca         1 IPJ      -0.091000
     18 H1           3.8990     0.0110     0.3500 ha         1 IPJ       0.142000
     19 H2           5.1190     0.0120     2.4880 ha         1 IPJ       0.133500
     20 H3           3.8830    -0.0000     4.6180 ha         1 IPJ       0.131000
     21 H4           1.4190    -0.0060     4.6230 ha         1 IPJ       0.133500
     22 H5           0.1780    -0.0030     2.4950 ha         1 IPJ       0.142000
     23 H6           3.0100    -0.0050    -1.2280 ha         1 IPJ       0.136000
     24 H7           0.1670    -0.0130    -2.3990 ha         1 IPJ       0.157000
     25 H8           0.2050    -0.0250    -4.8890 ha         1 IPJ       0.139000
     26 H9           1.4420    -0.0360    -7.0140 ha         1 IPJ       0.143500
     27 H10          4.2080    -0.9260    -7.5140 ho         1 IPJ       0.423000
     28 H11          5.1530    -0.0220    -4.8710 ha         1 IPJ       0.143500
     29 H12          3.9300    -0.0080    -2.7370 ha         1 IPJ       0.139000
@<TRIPOS>BOND
     1     5     4 ar
     2     5     6 ar
     3    16    17 ar
     4    16    14 ar
     5    17    11 ar
     6    15    14 1
     7     4     3 ar
     8     6     7 ar
     9    14    13 ar
    10    11    10 1
    11    11    12 ar
    12    10     9 2
    13    13    12 ar
    14     3     2 1
    15     3     8 ar
    16     7     8 ar
    17     9     2 1
    18     2     1 2
    19     4    18 1
    20     5    19 1
    21     6    20 1
    22     7    21 1
    23     8    22 1
    24     9    23 1
    25    10    24 1
    26    12    25 1
    27    13    26 1
    28    15    27 1
    29    16    28 1
    30    17    29 1
@<TRIPOS>SUBSTRUCTURE
     1 IPJ         1 TEMP              0 ****  ****    0 ROOT
