@<TRIPOS>MOLECULE
molecule
   58    62     1     0     0
SMALL
bcc


@<TRIPOS>ATOM
      1 OAA          0.0000     0.0000     0.0000 o          1 IPK      -0.603100
      2 CAB          7.7320     0.6450    -5.4550 ca         1 IPK      -0.131000
      3 CAC          6.8810     1.6560    -5.8610 ca         1 IPK      -0.126000
      4 CAD          7.2160    -0.5040    -4.8840 ca         1 IPK      -0.126000
      5 CAF          5.5150     1.5210    -5.6920 ca         1 IPK      -0.127500
      6 CAG          5.8500    -0.6420    -4.7210 ca         1 IPK      -0.127500
      7 CAH          3.7710    -0.5830     2.6900 ca         1 IPK      -0.119500
      8 CAI          2.2120    -2.4080     2.7040 ca         1 IPK      -0.119500
      9 CAJ          3.0890     0.0000     1.6420 ca         1 IPK      -0.094000
     10 CAK          1.5180    -1.8330     1.6610 ca         1 IPK      -0.094000
     11 CAN          3.7350    -0.0990    -2.4710 c3         1 IPK      -0.096900
     12 CAO          1.5810     0.7260    -3.4360 c3         1 IPK      -0.096900
     13 CAP          3.3540     0.4650    -1.1000 c3         1 IPK       0.100000
     14 CAQ          1.1750     1.3000    -2.0740 c3         1 IPK       0.100000
     15 CAS          3.5120     0.2230    -4.9390 c3         1 IPK      -0.032100
     16 SAW          5.3690    -3.5170     3.7000 ss         1 IPK      -0.176300
     17 CAX          1.2150     0.0000     0.0000 c          1 IPK       0.675700
     18 CAY          3.3360    -1.7850     3.2190 ca         1 IPK      -0.074300
     19 CAZ          5.0010     0.3740    -5.1170 ca         1 IPK      -0.082300
     20 CBA          1.9550    -0.6220     1.1190 ca         1 IPK      -0.131600
     21 CBE          3.1050     0.7640    -3.5670 c3         1 IPK      -0.067700
     22 NBF          1.8890     0.5670    -1.0210 n          1 IPK      -0.486800
     23 C21          6.0710    -4.1070     5.2050 cc         1 IPK       0.454700
     24 C22          7.3620    -5.1910     6.6390 ca         1 IPK      -0.225500
     25 N2           7.1110    -4.9870     5.2940 na         1 IPK      -0.238300
     26 N3           5.6770    -3.7600     6.4080 nd         1 IPK      -0.623100
     27 C23          6.4300    -4.3940     7.3340 ca         1 IPK       0.130400
     28 N4           8.2460    -5.9320     8.6800 nb         1 IPK      -0.677000
     29 C24          8.2640    -5.9520     7.3600 ca         1 IPK       0.435200
     30 C25          6.4610    -4.4110     8.7330 ca         1 IPK      -0.200300
     31 C26          7.3850    -5.1960     9.3640 ca         1 IPK       0.396200
     32 HAB          8.8020     0.7520    -5.5850 ha         1 IPK       0.129000
     33 HAC          7.2840     2.5560    -6.3100 ha         1 IPK       0.129500
     34 HAD          7.8820    -1.2980    -4.5700 ha         1 IPK       0.129500
     35 HAF          4.8490     2.3150    -6.0070 ha         1 IPK       0.130000
     36 HAG          5.4470    -1.5410    -4.2720 ha         1 IPK       0.130000
     37 HAH          4.6510    -0.1010     3.0970 ha         1 IPK       0.141000
     38 HAI          1.8750    -3.3480     3.1240 ha         1 IPK       0.141000
     39 HAJ          3.4320     0.9400     1.2270 ha         1 IPK       0.148000
     40 HAK          0.6380    -2.3210     1.2590 ha         1 IPK       0.148000
     41 HAN          3.3680    -1.1150    -2.5580 hc         1 IPK       0.054200
     42 HANA         4.8130    -0.0880    -2.5780 hc         1 IPK       0.054200
     43 HAO          1.1370     1.3220    -4.2250 hc         1 IPK       0.054200
     44 HAOA         1.2380    -0.2980    -3.5130 hc         1 IPK       0.054200
     45 HAP          3.7130    -0.1990    -0.3230 h1         1 IPK       0.059200
     46 HAPA         3.7930     1.4470    -0.9770 h1         1 IPK       0.059200
     47 HAQ          1.4410     2.3490    -2.0290 h1         1 IPK       0.059200
     48 HAQA         0.1070     1.1840    -1.9350 h1         1 IPK       0.059200
     49 HAR          4.5510    -1.6470     4.9610 h1         1 IPK       0.090200
     50 HARA         3.4030    -2.9920     4.9710 h1         1 IPK       0.090200
     51 HAS          3.2440    -0.8240    -5.0080 hc         1 IPK       0.051200
     52 HASA         2.9970     0.7800    -5.7130 hc         1 IPK       0.051200
     53 HBE          3.4490     1.7860    -3.4610 hc         1 IPK       0.055700
     54 H23          7.5080    -5.5080     4.5360 hn         1 IPK       0.312700
     55 H24          8.9860    -6.5690     6.8400 h4         1 IPK       0.019100
     56 H25          5.7630    -3.8130     9.3070 ha         1 IPK       0.149000
     57 H26          7.4130    -5.2160    10.4460 h4         1 IPK       0.027100
     58 CAR          4.0890    -2.4200     4.3590 c3         1 IPK       0.057000
@<TRIPOS>BOND
     1     1    17 2
     2     2     3 ar
     3     4     2 ar
     4     4     6 ar
     5     5     3 ar
     6     6    19 ar
     7     8    18 ar
     8     9     7 ar
     9    10     8 ar
    10    10    20 ar
    11    12    21 1
    12    13    11 1
    13    14    12 1
    14    14    22 1
    15    58    16 1
    16    17    20 1
    17    17    22 1
    18    18     7 ar
    19    18    58 1
    20    19     5 ar
    21    19    15 1
    22    20     9 ar
    23    21    11 1
    24    21    15 1
    25    22    13 1
    26    16    23 1
    27    25    23 1
    28    23    26 2
    29    24    25 1
    30    26    27 1
    31    29    24 ar
    32    24    27 ar
    33    27    30 ar
    34    28    29 ar
    35    30    31 ar
    36    28    31 ar
    37     2    32 1
    38     3    33 1
    39     4    34 1
    40     5    35 1
    41     6    36 1
    42     7    37 1
    43     8    38 1
    44     9    39 1
    45    10    40 1
    46    11    41 1
    47    11    42 1
    48    12    43 1
    49    12    44 1
    50    13    45 1
    51    13    46 1
    52    14    47 1
    53    14    48 1
    54    58    49 1
    55    58    50 1
    56    15    51 1
    57    15    52 1
    58    21    53 1
    59    25    54 1
    60    29    55 1
    61    30    56 1
    62    31    57 1
@<TRIPOS>SUBSTRUCTURE
     1 IPK         1 TEMP              0 ****  ****    0 ROOT
