@<TRIPOS>MOLECULE
IPL
   29    30     1     0     0
SMALL
bcc


@<TRIPOS>ATOM
      1 N1          0.0400   -0.8470    0.0040 nh        1 IPL     -0.234500
      2 C2          1.4240   -0.7520   -0.0070 c1        1 IPL     -0.131900
      3 C3          1.8310   -0.3420    1.3020 ce        1 IPL     -0.411500
      4 C4          0.4110    0.1760    3.4380 ca        1 IPL     -0.158000
      5 C5         -0.8980    0.2130    3.9090 ca        1 IPL     -0.165000
      6 C6         -1.9830   -0.1020    3.0840 ca        1 IPL     -0.219000
      7 C7         -1.7860   -0.4670    1.7510 ca        1 IPL     -0.157000
      8 C8         -0.4860   -0.5120    1.2600 ca        1 IPL     -0.138200
      9 C9          0.6620   -0.1850    2.1130 ca        1 IPL     -0.013800
     10 C1'         5.0370    1.2910    2.6330 c3        1 IPL      0.187400
     11 C2'         3.6150    1.2460    2.0840 c3        1 IPL     -0.098400
     12 C3'         3.2230   -0.1810    1.7340 c3        1 IPL      0.046800
     13 P           6.7780    3.2240    2.5110 p5        1 IPL      1.429800
     14 O1P         7.7340    2.1130    2.2900 o         1 IPL     -0.850000
     15 O2P         7.0630    4.4520    3.2810 o         1 IPL     -0.850000
     16 O3P         6.3150    3.6080    0.9890 oh        1 IPL     -0.781400
     17 O4P         5.3680    2.5810    3.0610 os        1 IPL     -0.585200
     18 HN1        -0.5210   -1.0700   -0.7680 hn        1 IPL      0.242700
     19 H2          6.3900    2.8670    0.4010 ho        1 IPL      0.419000
     20 H4          1.2500    0.4360    4.0970 ha        1 IPL      0.114000
     21 H5         -1.0870    0.5010    4.9530 ha        1 IPL      0.080000
     22 H6         -3.0030   -0.0600    3.4880 ha        1 IPL      0.077000
     23 H7         -2.6430   -0.7100    1.1110 ha        1 IPL      0.081000
     24 H1'1        5.7720    0.9440    1.8530 h1        1 IPL      0.010200
     25 H1'2        5.1060    0.5960    3.5190 h1        1 IPL      0.010200
     26 H2'1        3.5400    1.8990    1.1780 hc        1 IPL      0.039700
     27 H2'2        2.9090    1.6590    2.8490 hc        1 IPL      0.039700
     28 H3'1        3.4120   -0.8290    2.6370 hc        1 IPL      0.007200
     29 H3'2        3.9040   -0.5500    0.9190 hc        1 IPL      0.007200
@<TRIPOS>BOND
     1    1    2 2   
     2    1    8 1   
     3    1   18 1   
     4    2    3 2   
     5    3    9 1   
     6    3   12 1   
     7    4    5 ar  
     8    4    9 ar  
     9    4   20 1   
    10    5    6 ar  
    11    5   21 1   
    12    6    7 ar  
    13    6   22 1   
    14    7    8 ar  
    15    7   23 1   
    16    8    9 ar  
    17   10   11 1   
    18   10   17 1   
    19   10   24 1   
    20   10   25 1   
    21   11   12 1   
    22   11   26 1   
    23   11   27 1   
    24   12   28 1   
    25   12   29 1   
    26   13   14 1   
    27   13   15 1   
    28   13   16 1   
    29   13   17 1   
    30   16   19 1   
@<TRIPOS>SUBSTRUCTURE
     1 IPL         1 TEMP              0 ****  ****    0 ROOT
