@<TRIPOS>MOLECULE
molecule
   29    30     1     0     0
SMALL
bcc


@<TRIPOS>ATOM
      1 N1           0.0000     0.0000     0.0000 na         1 IPL      -0.196400
      2 C2           1.3690     0.0000     0.0000 cc         1 IPL      -0.132100
      3 C3           1.8260     0.0000     1.2630 cd         1 IPL      -0.100400
      4 C4           0.4820    -0.0010     3.5260 ca         1 IPL      -0.054000
      5 C5          -0.7790    -0.0010     4.0530 ca         1 IPL      -0.180000
      6 C6          -1.8900    -0.0010     3.2210 ca         1 IPL      -0.121000
      7 C7          -1.7420    -0.0010     1.8520 ca         1 IPL      -0.164000
      8 C8          -0.4680    -0.0000     1.2950 ca         1 IPL      -0.045200
      9 C9           0.6550    -0.0070     2.1410 ca         1 IPL      -0.094800
     10 C1'          5.2260     1.4380     2.2740 c3         1 IPL       0.160400
     11 C2'          3.7590     1.4390     1.8380 c3         1 IPL      -0.085400
     12 C3'          3.2700    -0.0010     1.6920 c3         1 IPL      -0.019200
     13 P            7.2250     2.7080     2.8690 p5         1 IPL       1.159900
     14 O1P          7.3210     1.9890     4.1580 o          1 IPL      -0.914167
     15 O2P          7.8080     4.1990     3.0430 o          1 IPL      -0.914167
     16 O3P          8.0790     1.9260     1.7520 o          1 IPL      -0.914167
     17 O4P          5.6830     2.7850     2.4100 os         1 IPL      -0.543200
     18 HN1         -0.5750     0.0000    -0.8190 hn         1 IPL       0.277700
     19 H2           1.9910    -0.0000    -0.8870 h4         1 IPL       0.168000
     20 H4           1.3450    -0.0010     4.1820 ha         1 IPL       0.148000
     21 H5          -0.9120    -0.0010     5.1280 ha         1 IPL       0.118000
     22 H6          -2.8830    -0.0010     3.6540 ha         1 IPL       0.109000
     23 H7          -2.6150    -0.0010     1.2110 ha         1 IPL       0.105000
     24 H1'1         5.3190     0.9280     3.2250 h1         1 IPL       0.036700
     25 H1'2         5.8240     0.9270     1.5300 h1         1 IPL       0.036700
     26 H2'1         3.1610     1.9500     2.5830 hc         1 IPL       0.033700
     27 H2'2         3.6650     1.9510     0.8880 hc         1 IPL       0.033700
     28 H3'1         3.8680    -0.5120     0.9470 hc         1 IPL       0.045700
     29 H3'2         3.3640    -0.5130     2.6430 hc         1 IPL       0.045700
@<TRIPOS>BOND
     1     1     2 1
     2     1     8 1
     3     1    18 1
     4     2     3 2
     5     2    19 1
     6     3     9 1
     7     3    12 1
     8     4     5 ar
     9     4     9 ar
    10     4    20 1
    11     5     6 ar
    12     5    21 1
    13     6     7 ar
    14     6    22 1
    15     7     8 ar
    16     7    23 1
    17     8     9 ar
    18    10    11 1
    19    10    17 1
    20    10    24 1
    21    10    25 1
    22    11    12 1
    23    11    26 1
    24    11    27 1
    25    12    28 1
    26    12    29 1
    27    13    14 1
    28    13    15 1
    29    13    16 1
    30    13    17 1
@<TRIPOS>SUBSTRUCTURE
     1 IPL         1 TEMP              0 ****  ****    0 ROOT
