@<TRIPOS>MOLECULE
IPM
   22    21     1     0     0
SMALL
bcc


@<TRIPOS>ATOM
      1 C1          0.2510    0.2080   -0.5650 c         1 IPM      0.894600
      2 C2          1.6800   -0.2740   -0.2220 c3        1 IPM      0.059100
      3 C3          2.0130   -0.1460    1.2700 c3        1 IPM     -0.179700
      4 C4          1.6950   -1.3760    2.1470 c         1 IPM      0.921600
      5 C5          3.4940    0.2250    1.4390 c3        1 IPM     -0.044700
      6 C6          3.7160    1.7010    1.1660 c3        1 IPM     -0.084600
      7 C7          4.0080   -0.1150    2.8220 c3        1 IPM     -0.084600
      8 O1          1.9350   -1.5620   -0.7500 oh        1 IPM     -0.640800
      9 O2          0.0390    1.4620   -0.5730 o         1 IPM     -0.872300
     10 O3         -0.6340   -0.6340   -0.8910 o         1 IPM     -0.872300
     11 O4          1.9030   -2.5540    1.7270 o         1 IPM     -0.872800
     12 O5          1.2700   -1.1580    3.3260 o         1 IPM     -0.872800
     13 H2          2.3830    0.3900   -0.8120 h1        1 IPM      0.012700
     14 H3          1.3890    0.7020    1.6700 hc        1 IPM      0.060700
     15 H5          4.0820   -0.3730    0.6860 hc        1 IPM      0.034700
     16 H61         3.2440    2.3180    1.9690 hc        1 IPM      0.017533
     17 H62         4.8080    1.9380    1.1370 hc        1 IPM      0.017533
     18 H63         3.2580    1.9930    0.1900 hc        1 IPM      0.017533
     19 H71         3.3290    0.3120    3.6000 hc        1 IPM      0.017533
     20 H72         5.0410    0.2860    2.9730 hc        1 IPM      0.017533
     21 H73         4.0240   -1.2240    2.9590 hc        1 IPM      0.017533
     22 HO1         1.3610   -2.1710   -0.2640 ho        1 IPM      0.435000
@<TRIPOS>BOND
     1    1    2 1   
     2    1    9 1   
     3    1   10 1   
     4    2    3 1   
     5    2    8 1   
     6    2   13 1   
     7    3    4 1   
     8    3    5 1   
     9    3   14 1   
    10    4   11 1   
    11    4   12 1   
    12    5    6 1   
    13    5    7 1   
    14    5   15 1   
    15    6   16 1   
    16    6   17 1   
    17    6   18 1   
    18    7   19 1   
    19    7   20 1   
    20    7   21 1   
    21    8   22 1   
@<TRIPOS>SUBSTRUCTURE
     1 IPM         1 TEMP              0 ****  ****    0 ROOT
