@<TRIPOS>MOLECULE
molecule
   22    21     1     0     0
SMALL
bcc


@<TRIPOS>ATOM
      1 C1           0.0000     0.0000     0.0000 c          1 IPM       0.912600
      2 C2           1.5070     0.0000     0.0000 c3         1 IPM       0.060100
      3 C3           2.0160     0.0000     1.4420 c3         1 IPM      -0.135700
      4 C4           1.5150    -1.2300     2.1510 c          1 IPM       0.907600
      5 C5           3.5460    -0.0000     1.4430 c3         1 IPM      -0.055700
      6 C6           4.0570     1.2490     0.7200 c3         1 IPM      -0.080100
      7 C7           4.0570    -0.0000     2.8840 c3         1 IPM      -0.080100
      8 O1           1.9830    -1.1670    -0.6730 oh         1 IPM      -0.598800
      9 O2          -0.6710     1.0060     0.5810 o          1 IPM      -0.865800
     10 O3          -0.6040    -0.9060    -0.5220 o          1 IPM      -0.865800
     11 O4           2.2990    -2.0250     2.6120 o          1 IPM      -0.857800
     12 O5           0.1960    -1.4430     2.2750 o          1 IPM      -0.857800
     13 H2           1.8680     0.8840    -0.5110 h1         1 IPM      -0.027300
     14 H3           1.6550     0.8840     1.9530 hc         1 IPM       0.060700
     15 H5           3.9070    -0.8850     0.9320 hc         1 IPM       0.059700
     16 H61          3.9810     1.1030    -0.3500 hc         1 IPM       0.011367
     17 H62          5.0920     1.4230     0.9890 hc         1 IPM       0.011367
     18 H63          3.4590     2.1040     1.0120 hc         1 IPM       0.011367
     19 H71          4.2310    -1.0200     3.2050 hc         1 IPM       0.011367
     20 H72          4.9830     0.5590     2.9390 hc         1 IPM       0.011367
     21 H73          3.3180     0.4600     3.5290 hc         1 IPM       0.011367
     22 HO1          1.8930    -1.0510    -1.6050 ho         1 IPM       0.355000
@<TRIPOS>BOND
     1     1     2 1
     2     1     9 1
     3     1    10 1
     4     2     3 1
     5     2     8 1
     6     2    13 1
     7     3     4 1
     8     3     5 1
     9     3    14 1
    10     4    11 1
    11     4    12 1
    12     5     6 1
    13     5     7 1
    14     5    15 1
    15     6    16 1
    16     6    17 1
    17     6    18 1
    18     7    19 1
    19     7    20 1
    20     7    21 1
    21     8    22 1
@<TRIPOS>SUBSTRUCTURE
     1 IPM         1 TEMP              0 ****  ****    0 ROOT
