@<TRIPOS>MOLECULE
IPO
   26    26     1     0     0
SMALL
bcc


@<TRIPOS>ATOM
      1 C1           0.0000     0.0000     0.0000 ca         1 IPO      -0.186300
      2 C2           1.3820     0.0000     0.0000 ca         1 IPO      -0.098500
      3 C3           2.0740     0.0000     1.1950 ca         1 IPO      -0.057000
      4 C4           1.3830    -0.0000     2.3930 ca         1 IPO       0.178900
      5 I4           2.4300     0.0010     4.2080 i          1 IPO      -0.180900
      6 C5           0.0000    -0.0000     2.3930 ca         1 IPO      -0.057000
      7 C6          -0.6900     0.0040     1.1960 ca         1 IPO      -0.098500
      8 C1'         -0.7530     0.0000    -1.3050 c3         1 IPO       0.043900
      9 C2'         -1.0070    -1.4410    -1.7480 c3         1 IPO      -0.149500
     10 N2'         -1.8010    -2.1340    -0.7240 nz         1 IPO       0.089400
     11 C3'         -1.7610    -1.4410    -3.0530 c          1 IPO       0.539100
     12 O3'         -2.9730    -1.4420    -3.0520 o          1 IPO      -0.602100
     13 N4'         -1.0880    -1.4400    -4.2190 ns         1 IPO       0.027600
     14 O4'         -1.7960    -1.4400    -5.4460 oh         1 IPO      -0.414100
     15 H2           1.9240    -0.0020    -0.9380 ha         1 IPO       0.107500
     16 H3           3.1570     0.0000     1.1950 ha         1 IPO       0.133500
     17 H5          -0.5420     0.0020     3.3310 ha         1 IPO       0.133500
     18 H6          -1.7730     0.0040     1.1960 ha         1 IPO       0.107500
     19 H1'1        -1.7000     0.5100    -1.1750 hc         1 IPO       0.059700
     20 H1'2        -0.1680     0.5120    -2.0590 hc         1 IPO       0.059700
     21 H2'         -0.0600    -1.9510    -1.8780 hx         1 IPO       0.087700
     22 HN21        -1.2110    -2.3820     0.0450 hn         1 IPO       0.232467
     23 HN22        -2.2010    -2.9630    -1.1170 hn         1 IPO       0.232467
     24 HN4         -0.0870    -1.4630    -4.2190 hn         1 IPO       0.161500
     25 HO4         -1.1930    -1.5800    -6.1570 ho         1 IPO       0.419000
     26 H2'3        -2.5400    -1.5360    -0.4130 hn         1 IPO       0.232467
@<TRIPOS>BOND
     1     1     2 ar  
     2     1     7 ar  
     3     1     8 1   
     4     2     3 ar  
     5     2    15 1   
     6     3     4 ar  
     7     3    16 1   
     8     4     5 1   
     9     4     6 ar  
    10     6     7 ar  
    11     6    17 1   
    12     7    18 1   
    13     8     9 1   
    14     8    19 1   
    15     8    20 1   
    16     9    10 1   
    17     9    11 1   
    18     9    21 1   
    19    10    22 1   
    20    10    23 1   
    21    10    26 1   
    22    11    12 2   
    23    11    13 1   
    24    13    14 1   
    25    13    24 1   
    26    14    25 1   
@<TRIPOS>SUBSTRUCTURE
     1 IPO         1 TEMP              0 ****  ****    0 ROOT
