@<TRIPOS>MOLECULE
molecule
   25    25     1     0     0
SMALL
bcc


@<TRIPOS>ATOM
      1 P            0.0000     0.0000     0.0000 p5         1 IPP       0.928600
      2 O1P          1.6270     0.0000     0.0000 o          1 IPP      -0.782500
      3 O2P         -0.5150     0.0000     1.4170 o          1 IPP      -0.782500
      4 C           -0.3040     1.5970    -0.7710 c3         1 IPP      -0.073200
      5 N           -1.7060     1.6150    -1.1160 ns         1 IPP      -0.587900
      6 C1          -2.6810     2.0780    -0.2460 c          1 IPP       0.660100
      7 O1          -2.4720     2.5140     0.8850 o          1 IPP      -0.558100
      8 C2          -4.0800     1.9650    -0.8110 c3         1 IPP      -0.125100
      9 C1'         -4.9380     1.0600     0.0320 ca         1 IPP      -0.044300
     10 C2'         -4.9830    -0.2980    -0.2530 ca         1 IPP      -0.110500
     11 C3'         -5.7800    -1.1370     0.5270 ca         1 IPP      -0.097000
     12 C4'         -6.5230    -0.6100     1.5830 ca         1 IPP       0.047900
     13 I           -7.7100    -1.8590     2.7440 i          1 IPP      -0.196900
     14 C5'         -6.4700     0.7560     1.8590 ca         1 IPP      -0.097000
     15 C6'         -5.6740     1.5950     1.0800 ca         1 IPP      -0.110500
     16 H           -0.5370    -1.0650    -0.7430 hp         1 IPP      -0.169400
     17 H1           0.3010     1.7010    -1.6640 h1         1 IPP       0.074200
     18 H2          -0.0810     2.3960    -0.0740 h1         1 IPP       0.074200
     19 HN          -1.9850     1.2810    -2.0170 hn         1 IPP       0.291500
     20 H21         -4.0250     1.5670    -1.8160 hc         1 IPP       0.052700
     21 H22         -4.5290     2.9500    -0.8440 hc         1 IPP       0.052700
     22 H2'         -4.4050    -0.7040    -1.0740 ha         1 IPP       0.140500
     23 H3'         -5.8210    -2.1980     0.3120 ha         1 IPP       0.135500
     24 H5'         -7.0470     1.1660     2.6800 ha         1 IPP       0.135500
     25 H6'         -5.6300     2.6570     1.2910 ha         1 IPP       0.140500
@<TRIPOS>BOND
     1     1     2 1
     2     1     3 1
     3     1     4 1
     4     1    16 1
     5     4     5 1
     6     4    17 1
     7     4    18 1
     8     5     6 1
     9     5    19 1
    10     6     7 2
    11     6     8 1
    12     8     9 1
    13     8    20 1
    14     8    21 1
    15     9    10 ar
    16     9    15 ar
    17    10    11 ar
    18    10    22 1
    19    11    12 ar
    20    11    23 1
    21    12    13 1
    22    12    14 ar
    23    14    15 ar
    24    14    24 1
    25    15    25 1
@<TRIPOS>SUBSTRUCTURE
     1 IPP         1 TEMP              0 ****  ****    0 ROOT
