@<TRIPOS>MOLECULE
molecule
   25    24     1     0     0
SMALL
bcc


@<TRIPOS>ATOM
      1 P11          0.0000     0.0000     0.0000 p5         1 IPR       1.178900
      2 O14          1.6100     0.0000     0.0000 o          1 IPR      -0.919167
      3 O12         -0.5370     0.0000     1.5170 o          1 IPR      -0.919167
      4 O13         -0.4920    -1.2090    -0.6970 o          1 IPR      -0.919167
      5 O10         -0.5360     1.3130    -0.7590 os         1 IPR      -0.653800
      6 P7          -2.1450     1.2480    -0.7230 p5         1 IPR       1.247800
      7 O8          -2.6440    -0.0870    -1.4690 o          1 IPR      -0.804500
      8 O9          -2.6050     1.2290     0.6820 o          1 IPR      -0.804500
      9 O6          -2.7510     2.5380    -1.4690 os         1 IPR      -0.556200
     10 C5          -4.1730     2.4230    -1.4040 c3         1 IPR       0.163400
     11 C4          -4.8160     3.6250    -2.0980 c3         1 IPR      -0.083400
     12 C2          -6.3390     3.5010    -2.0280 c3         1 IPR      -0.077700
     13 C1          -6.9820     4.7040    -2.7230 c3         1 IPR      -0.086100
     14 C3          -6.7790     2.2140    -2.7270 c3         1 IPR      -0.086100
     15 HC51        -4.4860     2.3940    -0.3670 h1         1 IPR       0.045700
     16 HC52        -4.4840     1.5110    -1.8990 h1         1 IPR       0.045700
     17 HC41        -4.5050     4.5360    -1.6020 hc         1 IPR       0.027700
     18 HC42        -4.5030     3.6530    -3.1340 hc         1 IPR       0.027700
     19 HC2         -6.6520     3.4740    -0.9910 hc         1 IPR       0.044700
     20 HC11        -6.7130     4.7010    -3.7720 hc         1 IPR       0.021200
     21 HC12        -6.6280     5.6180    -2.2620 hc         1 IPR       0.021200
     22 HC13        -8.0590     4.6440    -2.6260 hc         1 IPR       0.021200
     23 HC31        -6.1540     2.0430    -3.5950 hc         1 IPR       0.021200
     24 HC32        -6.6810     1.3800    -2.0420 hc         1 IPR       0.021200
     25 HC33        -7.8120     2.3070    -3.0380 hc         1 IPR       0.021200
@<TRIPOS>BOND
     1     1     2 1
     2     1     3 1
     3     1     4 1
     4     1     5 1
     5     5     6 1
     6     6     7 1
     7     6     8 1
     8     6     9 1
     9     9    10 1
    10    10    11 1
    11    10    15 1
    12    10    16 1
    13    11    12 1
    14    11    17 1
    15    11    18 1
    16    12    13 1
    17    12    14 1
    18    12    19 1
    19    13    20 1
    20    13    21 1
    21    13    22 1
    22    14    23 1
    23    14    24 1
    24    14    25 1
@<TRIPOS>SUBSTRUCTURE
     1 IPR         1 TEMP              0 ****  ****    0 ROOT
