@<TRIPOS>MOLECULE
IPS
    5     4     1     0     0
SMALL
bcc


@<TRIPOS>ATOM
      1 P          17.7430   45.7220    1.9140 p5        1 IPS      1.243000
      2 O1         17.7620   46.9710    2.8410 o         1 IPS     -1.060500
      3 O2         17.6340   44.4350    2.7810 o         1 IPS     -1.060500
      4 O3         16.5200   45.8060    0.9560 o         1 IPS     -1.060500
      5 O4         19.0540   45.6750    1.0790 o         1 IPS     -1.060500
@<TRIPOS>BOND
     1    1    2 1   
     2    1    3 1   
     3    1    4 1   
     4    1    5 1   
@<TRIPOS>SUBSTRUCTURE
     1 IPS         1 TEMP              0 ****  ****    0 ROOT
