@<TRIPOS>MOLECULE
molecule
    5     4     1     0     0
SMALL
bcc


@<TRIPOS>ATOM
      1 P           17.7920    45.6420     1.9310 p5         1 IPS       1.260000
      2 O1          17.7370    47.0120     2.7190 o          1 IPS      -1.065000
      3 O2          17.5900    44.3820     2.7320 o          1 IPS      -1.065000
      4 O3          16.5170    45.8480     1.0640 o          1 IPS      -1.065000
      5 O4          19.0770    45.7260     1.1250 o          1 IPS      -1.065000
@<TRIPOS>BOND
     1     1     2 1
     2     1     3 1
     3     1     4 1
     4     1     5 1
@<TRIPOS>SUBSTRUCTURE
     1 IPS         1 TEMP              0 ****  ****    0 ROOT
