@<TRIPOS>MOLECULE
IPU
   18    17     1     0     0
SMALL
bcc


@<TRIPOS>ATOM
      1 C1           0.0000     0.0000     0.0000 c3         1 IPU      -0.000600
      2 C2           1.5300     0.0000     0.0000 c3         1 IPU       0.063400
      3 C3           2.0390     0.0000     1.4430 c3         1 IPU      -0.000600
      4 C            3.8700    -1.2260    -0.7070 c2         1 IPU       0.155100
      5 S            2.1340    -1.4760    -0.8540 ss         1 IPU      -0.234300
      6 N1           4.3270    -0.1680    -0.0950 n2         1 IPU      -0.525100
      7 N2           4.7460    -2.1430    -1.2380 nz         1 IPU       0.215400
      8 H11         -0.3610     0.8790     0.5200 hc         1 IPU       0.033533
      9 H12         -0.3610     0.0110    -1.0210 hc         1 IPU       0.033533
     10 H13         -0.3610    -0.8900     0.5010 hc         1 IPU       0.033533
     11 H2           1.8900     0.8850    -0.5100 h1         1 IPU       0.060700
     12 H31          2.6880    -0.8530     1.5960 hc         1 IPU       0.033533
     13 H32          1.1970    -0.0600     2.1220 hc         1 IPU       0.033533
     14 H33          2.5910     0.9130     1.6310 hc         1 IPU       0.033533
     15 HN1          3.6930     0.5010     0.2920 hn         1 IPU       0.400400
     16 HN21         5.2840    -2.5550    -0.5020 hn         1 IPU       0.221467
     17 HN22         5.3580    -1.6850    -1.8840 hn         1 IPU       0.221467
     18 H23          4.2320    -2.8580    -1.7150 hn         1 IPU       0.221467
@<TRIPOS>BOND
     1     1     2 1   
     2     1     8 1   
     3     1     9 1   
     4     1    10 1   
     5     2     3 1   
     6     2     5 1   
     7     2    11 1   
     8     3    12 1   
     9     3    13 1   
    10     3    14 1   
    11     4     5 1   
    12     4     6 2   
    13     4     7 1   
    14     6    15 1   
    15     7    16 1   
    16     7    17 1   
    17     7    18 1   
@<TRIPOS>SUBSTRUCTURE
     1 IPU         1 TEMP              0 ****  ****    0 ROOT
