@<TRIPOS>MOLECULE
molecule
   18    17     1     0     0
SMALL
bcc


@<TRIPOS>ATOM
      1 C1           0.0000     0.0000     0.0000 c3         1 IPU      -0.088600
      2 C2           1.5300     0.0000     0.0000 c3         1 IPU       0.024400
      3 C3           2.0390     0.0000     1.4430 c3         1 IPU      -0.088600
      4 C            3.8700    -1.2260    -0.7070 c2         1 IPU       0.466100
      5 S            2.1340    -1.4760    -0.8540 ss         1 IPU      -0.118300
      6 N1           4.3270    -0.1680    -0.0950 n2         1 IPU      -0.712100
      7 N2           4.7460    -2.1430    -1.2380 nz         1 IPU      -0.785600
      8 H11         -0.3610    -0.8600     0.5510 hc         1 IPU       0.062033
      9 H12         -0.3610    -0.0480    -1.0200 hc         1 IPU       0.062033
     10 H13         -0.3610     0.9070     0.4690 hc         1 IPU       0.062033
     11 H2           1.8900     0.8850    -0.5100 h1         1 IPU       0.098700
     12 H31          1.2240     0.2450     2.1130 hc         1 IPU       0.062033
     13 H32          2.8270     0.7360     1.5480 hc         1 IPU       0.062033
     14 H33          2.4260    -0.9810     1.6890 hc         1 IPU       0.062033
     15 HN1          5.3140    -0.0260    -0.0110 hn         1 IPU       0.431400
     16 HN21         5.3160    -1.6990    -1.9300 hn         1 IPU       0.466800
     17 HN22         4.2310    -2.8900    -1.6610 hn         1 IPU       0.466800
     18 H23          5.3270    -2.5090    -0.5110 hn         1 IPU       0.466800
@<TRIPOS>BOND
     1     1     2 1
     2     1     8 1
     3     1     9 1
     4     1    10 1
     5     2     3 1
     6     2     5 1
     7     2    11 1
     8     3    12 1
     9     3    13 1
    10     3    14 1
    11     4     5 1
    12     4     6 2
    13     4     7 1
    14     6    15 1
    15     7    16 1
    16     7    17 1
    17    18     7 1
@<TRIPOS>SUBSTRUCTURE
     1 IPU         1 TEMP              0 ****  ****    0 ROOT
