@<TRIPOS>MOLECULE
molecule
   63    66     1     0     0
SMALL
bcc


@<TRIPOS>ATOM
      1 C1           0.0000     0.0000     0.0000 ca         1 IPV      -0.063300
      2 C2           1.3800     0.0000     0.0000 ca         1 IPV      -0.131000
      3 C3           2.0740     0.0000     1.1970 ca         1 IPV      -0.101000
      4 C7          -2.8280    -1.2560     1.2100 c3         1 IPV       0.236100
      5 C8          -2.7800     1.2130     1.2060 ca         1 IPV       0.766200
      6 C9          -4.1720     1.2320     1.3140 ca         1 IPV      -0.491600
      7 C10         -4.8170     2.4540     1.3110 ca         1 IPV       0.527200
      8 C11         -2.7810     3.5160     1.1030 ca         1 IPV       0.961900
      9 C12         -2.7460     5.9160     0.8760 ca         1 IPV       0.167600
     10 C13         -2.2160     7.0670     1.4380 ca         1 IPV      -0.166000
     11 C14         -2.8900     8.2740     1.3090 ca         1 IPV       0.120600
     12 C15         -4.0930     8.3240     0.6160 ca         1 IPV      -0.066000
     13 C16         -4.6190     7.1750     0.0570 ca         1 IPV      -0.264500
     14 C19         -1.9270    10.5440     0.7160 c3         1 IPV       0.142300
     15 C20         -1.3710    11.8120     1.3710 c3         1 IPV       0.138900
     16 C21         -0.3180    10.4930     3.0710 c3         1 IPV       0.138900
     17 C22         -0.8640     9.2120     2.4330 c3         1 IPV       0.142300
     18 O1          -6.6750     5.9310    -0.7060 o          1 IPV      -0.615300
     19 S           -6.1450     7.2440    -0.8220 sy         1 IPV       1.194300
     20 O           -6.8220     8.3600    -0.2600 o          1 IPV      -0.615300
     21 C18         -5.6650     7.5880    -2.5370 c3         1 IPV      -0.230300
     22 N4          -2.1280     9.5150     1.7450 nh         1 IPV      -0.646000
     23 O2          -0.1590    11.4920     2.0610 os         1 IPV      -0.424600
     24 C17         -3.9510     5.9730     0.1840 ca         1 IPV      -0.047000
     25 N3          -2.0680     4.6990     0.9990 nu         1 IPV      -0.759300
     26 N1          -4.1020     3.5640     1.2040 nb         1 IPV      -0.820000
     27 N2          -2.1250     2.3660     1.1080 nb         1 IPV      -0.848000
     28 C6          -0.6940     0.0050     1.2040 ca         1 IPV       0.143600
     29 C           -0.7540     0.0000    -1.3050 c3         1 IPV      -0.045800
     30 C5           0.0050     0.0050     2.4040 ca         1 IPV      -0.093000
     31 C4           1.3870    -0.0010     2.3970 ca         1 IPV      -0.092300
     32 C23          2.1450    -0.0020     3.6990 c3         1 IPV       0.189700
     33 O3           2.3800    -1.3500     4.1130 oh         1 IPV      -0.605800
     34 H1           1.9220    -0.0020    -0.9380 ha         1 IPV       0.134000
     35 H2           3.1570    -0.0020     1.1950 ha         1 IPV       0.132000
     36 H3          -3.4040    -1.3360     2.1250 h1         1 IPV       0.044033
     37 H4          -2.1340    -2.0850     1.1470 h1         1 IPV       0.044033
     38 H5          -3.4980    -1.2800     0.3590 h1         1 IPV       0.044033
     39 H6          -4.7340     0.3100     1.3980 ha         1 IPV       0.145000
     40 H7          -5.8960     2.5040     1.3930 h4         1 IPV       0.037100
     41 H8          -1.2770     7.0240     1.9780 ha         1 IPV       0.143000
     42 H9          -4.6200     9.2650     0.5140 ha         1 IPV       0.156000
     43 H10         -1.2240    10.1820    -0.0240 h1         1 IPV       0.044950
     44 H11         -2.8750    10.7700     0.2420 h1         1 IPV       0.044950
     45 H12         -1.1660    12.5520     0.6080 h1         1 IPV       0.056450
     46 H13         -2.0950    12.2010     2.0760 h1         1 IPV       0.056450
     47 H14         -1.0140    10.8470     3.8220 h1         1 IPV       0.056450
     48 H15          0.6420    10.2870     3.5290 h1         1 IPV       0.056450
     49 H16         -1.0410     8.4720     3.2040 h1         1 IPV       0.044950
     50 H17         -0.1450     8.8320     1.7170 h1         1 IPV       0.044950
     51 H18         -5.3560     8.6230    -2.6240 h1         1 IPV       0.097367
     52 H19         -6.5090     7.4070    -3.1910 h1         1 IPV       0.097367
     53 H20         -4.8440     6.9400    -2.8190 h1         1 IPV       0.097367
     54 H21         -4.3660     5.0740    -0.2560 ha         1 IPV       0.179000
     55 H22         -1.0680     4.6820     1.0000 hn         1 IPV       0.466800
     56 H23         -1.4410     0.8380    -1.3250 hc         1 IPV       0.045700
     57 H24         -1.3090    -0.9250    -1.4010 hc         1 IPV       0.045700
     58 H25         -0.0530     0.0880    -2.1270 hc         1 IPV       0.045700
     59 H26         -0.5330     0.0060     3.3440 ha         1 IPV       0.141000
     60 H27          1.5650     0.5120     4.4550 h1         1 IPV       0.026700
     61 H28          3.0930     0.5050     3.5650 h1         1 IPV       0.026700
     62 H29          2.9530    -1.3530     4.8610 ho         1 IPV       0.401000
     63 N           -2.0910     0.0100     1.2070 nh         1 IPV      -0.700700
@<TRIPOS>BOND
     1    20    19 2
     2    21    19 1
     3    19    18 2
     4    19    13 1
     5    24    13 ar
     6    24     9 ar
     7    26     7 ar
     8    26     8 ar
     9    13    12 ar
    10    25     9 1
    11    25     8 1
    12     9    10 ar
    13     7     6 ar
    14     8    27 ar
    15    12    11 ar
    16    10    11 ar
    17     6     5 ar
    18    27     5 ar
    19    11    22 1
    20     5    63 1
    21    17    22 1
    22    17    16 1
    23    22    14 1
    24    63     4 1
    25    63    28 1
    26    16    23 1
    27    14    15 1
    28    28    30 ar
    29    28     1 ar
    30    30    31 ar
    31    23    15 1
    32     1    29 1
    33     1     2 ar
    34    31    32 1
    35    31     3 ar
    36    32    33 1
    37     2     3 ar
    38     2    34 1
    39     3    35 1
    40     4    36 1
    41     4    37 1
    42     4    38 1
    43     6    39 1
    44     7    40 1
    45    10    41 1
    46    12    42 1
    47    14    43 1
    48    14    44 1
    49    15    45 1
    50    15    46 1
    51    16    47 1
    52    16    48 1
    53    17    49 1
    54    17    50 1
    55    21    51 1
    56    21    52 1
    57    21    53 1
    58    24    54 1
    59    25    55 1
    60    29    56 1
    61    29    57 1
    62    29    58 1
    63    30    59 1
    64    32    60 1
    65    32    61 1
    66    33    62 1
@<TRIPOS>SUBSTRUCTURE
     1 IPV         1 TEMP              0 ****  ****    0 ROOT
