@<TRIPOS>MOLECULE
IPV
   63    66     1     0     0
SMALL
bcc


@<TRIPOS>ATOM
      1 C1           0.0000     0.0000     0.0000 ca         1 IPV      -0.062300
      2 C2           1.3800     0.0000     0.0000 ca         1 IPV      -0.107000
      3 C3           2.0740     0.0000     1.1970 ca         1 IPV      -0.064000
      4 C7          -2.8280    -1.2560     1.2100 c3         1 IPV       0.197100
      5 C8          -2.7800     1.2130     1.2060 ca         1 IPV       0.586200
      6 C9          -4.1720     1.2320     1.3140 ca         1 IPV      -0.489600
      7 C10         -4.8170     2.4540     1.3110 ca         1 IPV       0.533200
      8 C11         -2.7810     3.5160     1.1030 ca         1 IPV       0.730900
      9 C12         -2.7460     5.9160     0.8760 ca         1 IPV       0.002600
     10 C13         -2.2160     7.0670     1.4380 ca         1 IPV      -0.153000
     11 C14         -2.8900     8.2740     1.3090 ca         1 IPV       0.032600
     12 C15         -4.0930     8.3240     0.6160 ca         1 IPV      -0.032000
     13 C16         -4.6190     7.1750     0.0570 ca         1 IPV      -0.119500
     14 C19         -1.9270    10.5440     0.7160 c3         1 IPV       0.112800
     15 C20         -1.3710    11.8120     1.3710 c3         1 IPV       0.215900
     16 C21         -0.3180    10.4930     3.0710 c3         1 IPV       0.215900
     17 C22         -0.8640     9.2120     2.4330 c3         1 IPV       0.112800
     18 O1          -6.6750     5.9310    -0.7060 o          1 IPV      -0.585800
     19 S           -6.1450     7.2440    -0.8220 sy         1 IPV       0.872300
     20 O           -6.8220     8.3600    -0.2600 o          1 IPV      -0.585800
     21 C18         -5.6650     7.5880    -2.5370 c3         1 IPV       0.024700
     22 N4          -2.1280     9.5150     1.7450 nh         1 IPV      -0.406000
     23 O2          -0.1590    11.4920     2.0610 os         1 IPV      -0.412600
     24 C17         -3.9510     5.9730     0.1840 ca         1 IPV      -0.025000
     25 N3          -2.0680     4.6990     0.9990 nu         1 IPV      -0.296300
     26 N1          -4.1020     3.5640     1.2040 nb         1 IPV      -0.727000
     27 N2          -2.1250     2.3660     1.1080 nb         1 IPV      -0.747000
     28 C6          -0.6940     0.0050     1.2040 ca         1 IPV       0.002600
     29 C           -0.7540     0.0000    -1.3050 c3         1 IPV       0.055200
     30 C5           0.0050     0.0050     2.4040 ca         1 IPV      -0.056000
     31 C4           1.3870    -0.0010     2.3970 ca         1 IPV      -0.113300
     32 C23          2.1450    -0.0020     3.6990 c3         1 IPV       0.284700
     33 O3           2.3800    -1.3500     4.1130 oh         1 IPV      -0.589800
     34 H1           1.9220    -0.0020    -0.9380 ha         1 IPV       0.108000
     35 H2           3.1570    -0.0020     1.1950 ha         1 IPV       0.105000
     36 H3          -3.4040    -1.3360     2.1250 h1         1 IPV       0.012700
     37 H4          -2.1340    -2.0850     1.1470 h1         1 IPV       0.012700
     38 H5          -3.4980    -1.2800     0.3590 h1         1 IPV       0.012700
     39 H6          -4.7340     0.3100     1.3980 ha         1 IPV       0.134000
     40 H7          -5.8960     2.5040     1.3930 h4         1 IPV      -0.013900
     41 H8          -1.2770     7.0240     1.9780 ha         1 IPV       0.125000
     42 H9          -4.6200     9.2650     0.5140 ha         1 IPV       0.131000
     43 H10         -1.2240    10.1820    -0.0240 h1         1 IPV       0.019200
     44 H11         -2.8750    10.7700     0.2420 h1         1 IPV       0.019200
     45 H12         -1.1660    12.5520     0.6080 h1         1 IPV       0.014200
     46 H13         -2.0950    12.2010     2.0760 h1         1 IPV       0.014200
     47 H14         -1.0140    10.8470     3.8220 h1         1 IPV       0.014200
     48 H15          0.6420    10.2870     3.5290 h1         1 IPV       0.014200
     49 H16         -1.0410     8.4720     3.2040 h1         1 IPV       0.019200
     50 H17         -0.1450     8.8320     1.7170 h1         1 IPV       0.019200
     51 H18         -5.3560     8.6230    -2.6240 h1         1 IPV       0.058700
     52 H19         -6.5090     7.4070    -3.1910 h1         1 IPV       0.058700
     53 H20         -4.8440     6.9400    -2.8190 h1         1 IPV       0.058700
     54 H21         -4.3660     5.0740    -0.2560 ha         1 IPV       0.156000
     55 H22         -1.0680     4.6820     1.0000 hn         1 IPV       0.292800
     56 H23         -1.4410     0.8380    -1.3250 hc         1 IPV       0.011700
     57 H24         -1.3090    -0.9250    -1.4010 hc         1 IPV       0.011700
     58 H25         -0.0530     0.0880    -2.1270 hc         1 IPV       0.011700
     59 H26         -0.5330     0.0060     3.3440 ha         1 IPV       0.112000
     60 H27          1.5650     0.5120     4.4550 h1         1 IPV      -0.012300
     61 H28          3.0930     0.5050     3.5650 h1         1 IPV      -0.012300
     62 H29          2.9530    -1.3530     4.8610 ho         1 IPV       0.389000
     63 N           -2.0910     0.0100     1.2070 nh         1 IPV      -0.303700
@<TRIPOS>BOND
     1     1     2 ar  
     2     1    28 ar  
     3     1    29 1   
     4     2     3 ar  
     5     2    34 1   
     6     3    31 ar  
     7     3    35 1   
     8     4    36 1   
     9     4    37 1   
    10     4    38 1   
    11     4    63 1   
    12     5     6 ar  
    13     5    27 ar  
    14     5    63 1   
    15     6     7 ar  
    16     6    39 1   
    17     7    26 ar  
    18     7    40 1   
    19     8    25 1   
    20     8    26 ar  
    21     8    27 ar  
    22     9    10 ar  
    23     9    24 ar  
    24     9    25 1   
    25    10    11 ar  
    26    10    41 1   
    27    11    12 ar  
    28    11    22 1   
    29    12    13 ar  
    30    12    42 1   
    31    13    19 1   
    32    13    24 ar  
    33    14    15 1   
    34    14    22 1   
    35    14    43 1   
    36    14    44 1   
    37    15    23 1   
    38    15    45 1   
    39    15    46 1   
    40    16    17 1   
    41    16    23 1   
    42    16    47 1   
    43    16    48 1   
    44    17    22 1   
    45    17    49 1   
    46    17    50 1   
    47    18    19 2   
    48    19    20 2   
    49    19    21 1   
    50    21    51 1   
    51    21    52 1   
    52    21    53 1   
    53    24    54 1   
    54    25    55 1   
    55    28    30 ar  
    56    28    63 1   
    57    29    56 1   
    58    29    57 1   
    59    29    58 1   
    60    30    31 ar  
    61    30    59 1   
    62    31    32 1   
    63    32    33 1   
    64    32    60 1   
    65    32    61 1   
    66    33    62 1   
@<TRIPOS>SUBSTRUCTURE
     1 IPV         1 TEMP              0 ****  ****    0 ROOT
