@<TRIPOS>MOLECULE
IPW
   49    53     1     0     0
SMALL
bcc


@<TRIPOS>ATOM
      1 C1           0.0000     0.0000     0.0000 ca         1 IPW      -0.111500
      2 C2           1.3850     0.0000     0.0000 ca         1 IPW      -0.016600
      3 C3           2.0820     0.0000     1.1970 ca         1 IPW      -0.111500
      4 C7          -2.0340    -0.6690     3.7810 cc         1 IPW      -0.243400
      5 C8          -2.6350    -1.4370     2.8240 cd         1 IPW      -0.236100
      6 C9          -4.0620    -1.4310     4.5580 ca         1 IPW       0.196800
      7 C10         -2.9520    -0.6540     4.9340 ca         1 IPW      -0.151100
      8 C11         -2.9180    -0.0640     6.1940 ca         1 IPW      -0.025000
      9 C12         -4.0020    -0.2710     7.0440 ca         1 IPW      -0.107300
     10 C13         -5.0700    -1.0560     6.6020 ca         1 IPW       0.404200
     11 C14         -4.0220     0.3320     8.4000 cc         1 IPW      -0.263300
     12 C15         -3.0190     1.1430     8.9660 cc         1 IPW       0.409200
     13 C16         -5.0190     0.2060     9.3240 cd         1 IPW      -0.244300
     14 C19         -7.7300     1.1530    12.6130 c3         1 IPW       0.152800
     15 C20         -6.0090    -0.0470    13.8270 c3         1 IPW       0.152800
     16 C21         -5.1490    -0.1610    12.5660 c3         1 IPW      -0.041900
     17 Cl           2.2500    -0.0000    -1.5050 cl         1 IPW      -0.022400
     18 C4           1.4010     0.0010     2.3950 ca         1 IPW      -0.056000
     19 C5           0.0050     0.0000     2.4010 ca         1 IPW      -0.164600
     20 C           -0.6930     0.0060     1.1920 ca         1 IPW      -0.056000
     21 C6          -0.7320     0.0000     3.6830 c          1 IPW       0.682900
     22 O           -0.2590     0.5550     4.6570 o          1 IPW      -0.570100
     23 N1          -5.0700    -1.5980     5.4050 nb         1 IPW      -0.567000
     24 N           -3.8290    -1.8840     3.2780 na         1 IPW       0.293900
     25 N3          -4.6500     0.9020    10.4190 na         1 IPW       0.503400
     26 N2          -3.3990     1.4790    10.1700 nd         1 IPW      -0.651800
     27 C17         -5.4280     1.0360    11.6540 c3         1 IPW      -0.041000
     28 N4          -7.4280    -0.0140    13.4510 n7         1 IPW      -0.582200
     29 C18         -6.9200     1.0750    11.3160 c3         1 IPW      -0.041900
     30 H1          -0.5400     0.0020    -0.9390 ha         1 IPW       0.116500
     31 H2           3.1660     0.0000     1.1920 ha         1 IPW       0.116500
     32 H3          -2.2170    -1.6580     1.8490 h4         1 IPW       0.157000
     33 H4          -2.0730     0.5390     6.5040 ha         1 IPW       0.134000
     34 H5          -5.9150    -1.2200     7.2600 h4         1 IPW      -0.019900
     35 H6          -2.0930     1.4370     8.4860 h4         1 IPW       0.012100
     36 H7          -5.9370    -0.3550     9.2020 h4         1 IPW       0.154000
     37 H9          -8.7870     1.1620    12.3770 h1         1 IPW       0.009950
     38 H10         -5.7560     0.8650    14.3540 h1         1 IPW       0.009950
     39 H11         -5.8260    -0.9020    14.4660 h1         1 IPW       0.009950
     40 H12         -5.3960    -1.0780    12.0440 hc         1 IPW       0.032200
     41 H13         -4.1020    -0.1670    12.8440 hc         1 IPW       0.032200
     42 H14          1.9480    -0.0010     3.3300 ha         1 IPW       0.121000
     43 H15         -1.7760     0.0060     1.1900 ha         1 IPW       0.121000
     44 H16         -4.4550    -2.4660     2.7580 hn         1 IPW       0.117700
     45 H17         -5.1500     1.9500    12.1650 h1         1 IPW       0.056700
     46 H18         -7.9920     0.0140    14.2780 hn         1 IPW       0.256800
     47 H20         -7.1300     1.9470    10.7080 hc         1 IPW       0.032200
     48 H21         -7.1910     0.1760    10.7760 hc         1 IPW       0.032200
     49 H8          -7.4660     2.0570    13.1480 h1         1 IPW       0.009950
@<TRIPOS>BOND
     1     1     2 ar  
     2     1    20 ar  
     3     1    30 1   
     4     2     3 ar  
     5     2    17 1   
     6     3    18 ar  
     7     3    31 1   
     8     4     5 2   
     9     4     7 1   
    10     4    21 1   
    11     5    24 1   
    12     5    32 1   
    13     6     7 ar  
    14     6    23 ar  
    15     6    24 1   
    16     7     8 ar  
    17     8     9 ar  
    18     8    33 1   
    19     9    10 ar  
    20     9    11 1   
    21    10    23 ar  
    22    10    34 1   
    23    11    12 1   
    24    11    13 2   
    25    12    26 2   
    26    12    35 1   
    27    13    25 1   
    28    13    36 1   
    29    14    28 1   
    30    14    29 1   
    31    14    37 1   
    32    14    49 1   
    33    15    16 1   
    34    15    28 1   
    35    15    38 1   
    36    15    39 1   
    37    16    27 1   
    38    16    40 1   
    39    16    41 1   
    40    18    19 ar  
    41    18    42 1   
    42    19    20 ar  
    43    19    21 1   
    44    20    43 1   
    45    21    22 2   
    46    24    44 1   
    47    25    26 1   
    48    25    27 1   
    49    27    29 1   
    50    27    45 1   
    51    28    46 1   
    52    29    47 1   
    53    29    48 1   
@<TRIPOS>SUBSTRUCTURE
     1 IPW         1 TEMP              0 ****  ****    0 ROOT
