@<TRIPOS>MOLECULE
molecule
   48    51     1     0     0
SMALL
bcc


@<TRIPOS>ATOM
      1 C1           0.0000     0.0000     0.0000 c3         1 IPX       0.112700
      2 C2          -1.9350    -5.3480    -2.0190 ca         1 IPX      -0.094800
      3 C3          -2.0100    -5.3470    -0.6130 ca         1 IPX      -0.045200
      4 C4          -2.3310    -6.4860    -2.7350 ca         1 IPX      -0.115000
      5 C5          -2.4780    -6.4790     0.0490 ca         1 IPX      -0.118000
      6 C6          -2.7880    -7.5850    -2.0640 ca         1 IPX       0.096900
      7 C7          -2.8610    -7.5850    -0.6750 ca         1 IPX      -0.143000
      8 N8          -1.5640    -4.1200    -0.1780 na         1 IPX      -0.170400
      9 C9          -1.2140    -3.3600    -1.2770 cc         1 IPX      -0.117300
     10 C10         -1.4360    -4.0810    -2.4070 cd         1 IPX      -0.119200
     11 C12         -0.6920    -1.9860    -1.2320 c          1 IPX       0.688300
     12 O13         -0.4160    -1.4050    -2.2650 o          1 IPX      -0.596100
     13 N14         -0.5200    -1.3690    -0.0460 ns         1 IPX      -0.567900
     14 C15          1.5430     0.0000     0.0000 c3         1 IPX      -0.045100
     15 C16          1.9390     0.0000     1.4610 ca         1 IPX      -0.102300
     16 C17          0.8620     0.3830     2.2370 ca         1 IPX      -0.085300
     17 C18         -0.3310     0.6680     1.3510 c3         1 IPX      -0.034400
     18 C19          3.1470    -0.3110     2.0630 ca         1 IPX      -0.123000
     19 C20          3.2780    -0.2390     3.4360 ca         1 IPX      -0.136000
     20 C21          2.2010     0.1450     4.2130 ca         1 IPX      -0.131000
     21 C22          0.9950     0.4550     3.6140 ca         1 IPX      -0.097000
     22 C23         -0.5090     2.1760     1.1680 c3         1 IPX      -0.075400
     23 C24         -0.9580     2.8030     2.4890 c3         1 IPX      -0.066400
     24 C25         -1.1360     4.3100     2.3060 c3         1 IPX      -0.182400
     25 C26         -1.5780     4.9270     3.6080 c          1 IPX       0.891600
     26 O27         -1.7350     4.2300     4.5840 o          1 IPX      -0.856300
     27 O28         -1.7980     6.2480     3.6860 o          1 IPX      -0.856300
     28 H1          -0.3820     0.5920    -0.8230 h1         1 IPX       0.092700
     29 H5          -2.5390    -6.4890     1.1310 ha         1 IPX       0.133000
     30 H7          -3.2250    -8.4650    -0.1570 ha         1 IPX       0.142000
     31 HN8         -1.4990    -3.8290     0.7770 hn         1 IPX       0.301700
     32 H10         -1.2560    -3.7490    -3.4220 ha         1 IPX       0.173000
     33 HN14        -0.7640    -1.8400     0.8030 hn         1 IPX       0.308500
     34 H15          1.9070     0.9030    -0.4750 hc         1 IPX       0.062700
     35 H15A         1.9070    -0.9030    -0.4750 hc         1 IPX       0.062700
     36 H18         -1.2250     0.2280     1.7760 hc         1 IPX       0.058700
     37 H19          3.9910    -0.6120     1.4560 ha         1 IPX       0.119000
     38 H20          4.2240    -0.4830     3.9040 ha         1 IPX       0.120000
     39 H21          2.3020     0.2020     5.2900 ha         1 IPX       0.130000
     40 H22          0.1510     0.7560     4.2230 ha         1 IPX       0.154000
     41 H23         -1.2580     2.3620     0.4070 hc         1 IPX       0.040200
     42 H23A         0.4320     2.6160     0.8610 hc         1 IPX       0.040200
     43 H24         -1.9000     2.3630     2.7960 hc         1 IPX       0.047200
     44 H24A        -0.2090     2.6170     3.2500 hc         1 IPX       0.047200
     45 H25         -1.8860     4.4960     1.5460 hc         1 IPX       0.029700
     46 H25A        -0.1950     4.7500     2.0000 hc         1 IPX       0.029700
     47 F11         -3.1690    -8.6810    -2.7550 f          1 IPX      -0.149900
     48 H4          -2.2770    -6.4940    -3.8170 ha         1 IPX       0.146000
@<TRIPOS>BOND
     1     1    13 1
     2     1    14 1
     3     1    17 1
     4     2     3 ar
     5     2     4 ar
     6     2    10 1
     7     3     5 ar
     8     3     8 1
     9     4     6 ar
    10     5     7 ar
    11     6     7 ar
    12     6    47 1
    13     8     9 1
    14     9    10 2
    15     9    11 1
    16    11    12 2
    17    11    13 1
    18    14    15 1
    19    15    16 ar
    20    15    18 ar
    21    16    17 1
    22    16    21 ar
    23    17    22 1
    24    18    19 ar
    25    19    20 ar
    26    20    21 ar
    27    22    23 1
    28    23    24 1
    29    24    25 1
    30    25    26 1
    31    25    27 1
    32     1    28 1
    33     4    48 1
    34     5    29 1
    35     7    30 1
    36     8    31 1
    37    10    32 1
    38    13    33 1
    39    14    34 1
    40    14    35 1
    41    17    36 1
    42    18    37 1
    43    19    38 1
    44    20    39 1
    45    21    40 1
    46    22    41 1
    47    22    42 1
    48    23    43 1
    49    23    44 1
    50    24    45 1
    51    24    46 1
@<TRIPOS>SUBSTRUCTURE
     1 IPX         1 TEMP              0 ****  ****    0 ROOT
