@<TRIPOS>MOLECULE
IPY
   89    92     1     0     0
SMALL
bcc


@<TRIPOS>ATOM
      1 C            0.0000     0.0000     0.0000 cc         1 IPY      -0.174400
      2 C1           0.7440     0.2240     6.4880 cc         1 IPY      -0.139000
      3 C2           1.3590     0.0000     0.0000 cd         1 IPY      -0.349300
      4 C3           3.1980     0.0010     1.7110 c3         1 IPY      -0.034400
      5 C4           0.7040    -0.0020     2.1240 cd         1 IPY      -0.396900
      6 C5           0.7380    -0.0030     3.5900 c          1 IPY       0.631700
      7 C6          -0.3900     0.0090     5.6920 cc         1 IPY      -0.161400
      8 C8          -1.4670    -0.0740     6.5170 cd         1 IPY      -0.356300
      9 C10          0.3160     0.2760     7.7990 cd         1 IPY      -0.396900
     10 C11          1.1620     0.4890     8.9780 c          1 IPY       0.632700
     11 C12          3.3080     0.8500     9.9540 cc         1 IPY      -0.167400
     12 C13          2.9130     0.6850    11.2900 cc         1 IPY      -0.145000
     13 C14          4.6410     1.1180     9.9460 cd         1 IPY      -0.350300
     14 C16          4.0390     0.8500    12.0690 cd         1 IPY      -0.397900
     15 C18          0.6440    -0.3880    19.9050 c3         1 IPY       0.071000
     16 C19         -0.7120    -0.8480    20.4470 c3         1 IPY      -0.058400
     17 C20         -0.6830    -0.8300    21.9760 c3         1 IPY      -0.020200
     18 C21         -1.9190    -1.3700    23.9590 c3         1 IPY       0.008100
     19 C22         -3.0190    -0.3020    22.1140 c3         1 IPY       0.008100
     20 C23          4.1000     0.7610    13.5310 c          1 IPY       0.650700
     21 C25         -3.0390     0.0000    -2.1820 cc         1 IPY       0.118000
     22 C26         -3.6910     0.0020    -4.2390 cd         1 IPY       0.320200
     23 C27         -4.8100    -0.0050    -3.4730 cc         1 IPY      -0.429600
     24 C29          3.0360     0.4080    15.6950 c3         1 IPY       0.067000
     25 C30          1.6810    -0.0530    16.2360 c3         1 IPY      -0.107400
     26 C31          1.7090    -0.0350    17.7420 c          1 IPY       0.585100
     27 C32         -0.4270     0.0040     1.3360 cc         1 IPY      -0.142000
     28 O1           1.8020     0.0890     4.1740 o          1 IPY      -0.688100
     29 O2           0.6800     0.4170    10.0930 o          1 IPY      -0.700100
     30 O3           5.1370     1.0200    14.1140 o          1 IPY      -0.675100
     31 O5           2.7130     0.3120    18.3260 o          1 IPY      -0.611100
     32 N            1.7960     0.0000     1.2860 na         1 IPY       0.532900
     33 N1          -0.4090    -0.1050     4.2900 ns         1 IPY       0.032900
     34 N3          -1.0470     0.0880     7.8000 na         1 IPY       0.525900
     35 N4           2.4730     0.7620     8.8260 ns         1 IPY       0.038900
     36 N5           5.0930     1.1200    11.2270 na         1 IPY       0.534900
     37 N6           0.6160    -0.4040    18.4410 ns         1 IPY      -0.226900
     38 N7          -1.9840    -1.2730    22.4950 nx         1 IPY       0.035600
     39 N8          -0.8290    -0.0000    -1.1350 ns         1 IPY       0.057900
     40 N9          -4.4060    -0.0090    -2.1750 na         1 IPY       0.372100
     41 N10         -2.6310     0.0020    -3.4330 nd         1 IPY      -0.602000
     42 N11          3.0090     0.3910    14.2300 ns         1 IPY      -0.202900
     43 H1           1.7630     0.3360     6.1400 ha         1 IPY       0.174000
     44 H2           1.9900    -0.0030    -0.8800 h4         1 IPY       0.152000
     45 H31          3.8400    -0.0300     0.8390 h1         1 IPY       0.032033
     46 H32A         3.4030     0.9010     2.2790 h1         1 IPY       0.032033
     47 H33          3.3890    -0.8670     2.3310 h1         1 IPY       0.032033
     48 H8          -2.4910    -0.2370     6.2040 h4         1 IPY       0.150000
     49 H91         -1.6070    -0.7560     9.6310 h1         1 IPY       0.029033
     50 H92         -1.8040     0.9990     9.5250 h1         1 IPY       0.029033
     51 H93         -2.9360    -0.0700     8.6860 h1         1 IPY       0.029033
     52 H13          1.9130     0.4610    11.6430 ha         1 IPY       0.169000
     53 H14          5.2430     1.2960     9.0640 h4         1 IPY       0.153000
     54 H151         6.8460     0.5130    12.1960 h1         1 IPY       0.033700
     55 H152         7.0940     1.5250    10.7670 h1         1 IPY       0.033700
     56 H153         6.5130     2.2480    12.2730 h1         1 IPY       0.033700
     57 H181         0.8480     0.6180    20.2510 h1         1 IPY       0.035700
     58 H182         1.4200    -1.0560    20.2590 h1         1 IPY       0.035700
     59 H191        -0.9160    -1.8540    20.1010 hc         1 IPY       0.035200
     60 H192        -1.4870    -0.1800    20.0920 hc         1 IPY       0.035200
     61 H201        -0.4790     0.1760    22.3220 hx         1 IPY       0.085700
     62 H202         0.0930    -1.4980    22.3300 hx         1 IPY       0.085700
     63 H211        -1.7000    -0.3950    24.3770 hx         1 IPY       0.074867
     64 H212        -1.1390    -2.0670    24.2410 hx         1 IPY       0.074867
     65 H213        -2.8710    -1.7210    24.3400 hx         1 IPY       0.074867
     66 H221        -2.6020     0.6980    22.1380 hx         1 IPY       0.074867
     67 H222        -3.8470    -0.3650    22.8100 hx         1 IPY       0.074867
     68 H223        -3.3700    -0.5230    21.1130 hx         1 IPY       0.074867
     69 H26         -3.6650     0.0060    -5.3220 h4         1 IPY       0.006100
     70 H27         -5.8330    -0.0080    -3.8280 h4         1 IPY       0.156000
     71 H281        -6.3080    -0.0240    -1.3050 h1         1 IPY       0.033700
     72 H282        -5.0780     0.8680    -0.3990 h1         1 IPY       0.033700
     73 H283        -5.0660    -0.9010    -0.4020 h1         1 IPY       0.033700
     74 H291         3.2390     1.4140    16.0410 h1         1 IPY       0.041200
     75 H292         3.8120    -0.2590    16.0500 h1         1 IPY       0.041200
     76 H301         0.9050     0.6140    15.8810 hc         1 IPY       0.034200
     77 H302         1.4780    -1.0600    15.8900 hc         1 IPY       0.034200
     78 H32         -1.4540     0.0060     1.6830 ha         1 IPY       0.172000
     79 HN1         -1.2720    -0.2820     3.8140 hn         1 IPY       0.171500
     80 HN4          2.8460     0.9280     7.9130 hn         1 IPY       0.173500
     81 HN6         -0.2060    -0.7090    17.9590 hn         1 IPY       0.177500
     82 HN7         -2.2100    -2.1690    22.1100 hn         1 IPY       0.257800
     83 HN8         -0.4240    -0.0020    -2.0510 hn         1 IPY       0.179500
     84 H11          2.1870     0.0850    13.7480 hn         1 IPY       0.183500
     85 C9          -1.9040     0.0640     8.9880 c3         1 IPY      -0.030400
     86 C24         -2.1700    -0.0010    -0.9910 c          1 IPY       0.516600
     87 C15          6.4770     1.3670    11.6430 c3         1 IPY      -0.034400
     88 C28         -5.2710    -0.0170    -0.9930 c3         1 IPY      -0.023400
     89 O4          -2.6620    -0.0020     0.1210 o          1 IPY      -0.689100
@<TRIPOS>BOND
     1     1     3 2   
     2     1    27 1   
     3     1    39 1   
     4     2     7 1   
     5     2     9 2   
     6     2    43 1   
     7     3    32 1   
     8     3    44 1   
     9     4    32 1   
    10     4    45 1   
    11     4    46 1   
    12     4    47 1   
    13     5     6 1   
    14     5    27 2   
    15     5    32 1   
    16     6    28 2   
    17     6    33 1   
    18     7     8 2   
    19     7    33 1   
    20     8    34 1   
    21     8    48 1   
    22     9    10 1   
    23     9    34 1   
    24    10    29 2   
    25    10    35 1   
    26    11    12 1   
    27    11    13 2   
    28    11    35 1   
    29    12    14 2   
    30    12    52 1   
    31    13    36 1   
    32    13    53 1   
    33    14    20 1   
    34    14    36 1   
    35    15    16 1   
    36    15    37 1   
    37    15    57 1   
    38    15    58 1   
    39    16    17 1   
    40    16    59 1   
    41    16    60 1   
    42    17    38 1   
    43    17    61 1   
    44    17    62 1   
    45    18    38 1   
    46    18    63 1   
    47    18    64 1   
    48    18    65 1   
    49    19    38 1   
    50    19    66 1   
    51    19    67 1   
    52    19    68 1   
    53    20    30 2   
    54    20    42 1   
    55    21    40 1   
    56    21    41 2   
    57    21    86 1   
    58    22    23 2   
    59    22    41 1   
    60    22    69 1   
    61    23    40 1   
    62    23    70 1   
    63    24    25 1   
    64    24    42 1   
    65    24    74 1   
    66    24    75 1   
    67    25    26 1   
    68    25    76 1   
    69    25    77 1   
    70    26    31 2   
    71    26    37 1   
    72    27    78 1   
    73    33    79 1   
    74    34    85 1   
    75    35    80 1   
    76    36    87 1   
    77    37    81 1   
    78    38    82 1   
    79    39    83 1   
    80    39    86 1   
    81    40    88 1   
    82    42    84 1   
    83    49    85 1   
    84    50    85 1   
    85    51    85 1   
    86    54    87 1   
    87    55    87 1   
    88    56    87 1   
    89    71    88 1   
    90    72    88 1   
    91    73    88 1   
    92    86    89 2   
@<TRIPOS>SUBSTRUCTURE
     1 IPY         1 TEMP              0 ****  ****    0 ROOT
