@<TRIPOS>MOLECULE
IPZ
   23    23     1     0     0
SMALL
bcc


@<TRIPOS>ATOM
      1 C9          0.0280    0.0330   -0.0380 c3        1 IPZ     -0.087100
      2 C8          1.5410   -0.0580   -0.0200 c3        1 IPZ     -0.105000
      3 C10         2.0660    0.0340    1.4000 c3        1 IPZ     -0.087100
      4 C2          2.0080   -1.3290   -0.6810 ca        1 IPZ      0.301300
      5 N1          1.6550   -2.5280   -0.1740 nb        1 IPZ     -0.612000
      6 C6          2.1020   -3.6320   -0.8080 ca        1 IPZ      0.244900
      7 C5          2.9120   -3.5590   -1.9640 ca        1 IPZ      0.312900
      8 N4          3.2860   -2.3810   -2.5010 nb        1 IPZ     -0.700000
      9 C3          2.8370   -1.2690   -1.8630 ca        1 IPZ      0.512300
     10 O7          3.1500   -0.0060   -2.3130 os        1 IPZ     -0.440100
     11 C11         3.9680    0.0960   -3.4800 c3        1 IPZ      0.124700
     12 H91        -0.3560   -0.0520   -1.0820 hc        1 IPZ      0.040200
     13 H92        -0.2930    1.0170    0.3810 hc        1 IPZ      0.040200
     14 H93        -0.4270   -0.7800    0.5780 hc        1 IPZ      0.040200
     15 H8          1.9560    0.8110   -0.6080 hc        1 IPZ      0.072700
     16 H101        1.6380   -0.7780    2.0360 hc        1 IPZ      0.040200
     17 H102        3.1790   -0.0530    1.4110 hc        1 IPZ      0.040200
     18 H103        1.7800    1.0190    1.8420 hc        1 IPZ      0.040200
     19 H6          1.8000   -4.6000   -0.3750 h4        1 IPZ      0.034100
     20 H5          3.2740   -4.4650   -2.4780 h4        1 IPZ      0.033100
     21 H111        4.0630    1.2030   -3.6190 h1        1 IPZ      0.051700
     22 H112        3.4630   -0.3740   -4.3580 h1        1 IPZ      0.051700
     23 H113        4.9660   -0.3710   -3.3040 h1        1 IPZ      0.051700
@<TRIPOS>BOND
     1    1    2 1   
     2    1   12 1   
     3    1   13 1   
     4    1   14 1   
     5    2    3 1   
     6    2    4 1   
     7    2   15 1   
     8    3   16 1   
     9    3   17 1   
    10    3   18 1   
    11    4    5 ar  
    12    4    9 ar  
    13    5    6 ar  
    14    6    7 ar  
    15    6   19 1   
    16    7    8 ar  
    17    7   20 1   
    18    8    9 ar  
    19    9   10 1   
    20   10   11 1   
    21   11   21 1   
    22   11   22 1   
    23   11   23 1   
@<TRIPOS>SUBSTRUCTURE
     1 IPZ         1 TEMP              0 ****  ****    0 ROOT
