@<TRIPOS>MOLECULE
molecule
   23    23     1     0     0
SMALL
bcc


@<TRIPOS>ATOM
      1 C9           0.0000     0.0000     0.0000 c3         1 IPZ      -0.082100
      2 C8           1.5290     0.0000     0.0000 c3         1 IPZ      -0.113000
      3 C10          2.0390     0.0000     1.4430 c3         1 IPZ      -0.082100
      4 C2           2.0330    -1.2290    -0.7110 ca         1 IPZ       0.303300
      5 N1           1.7150    -2.4280    -0.2610 nb         1 IPZ      -0.626000
      6 C6           2.1560    -3.5080    -0.8830 ca         1 IPZ       0.257900
      7 C5           2.9460    -3.3840    -2.0110 ca         1 IPZ       0.326900
      8 N4           3.2630    -2.1860    -2.4700 nb         1 IPZ      -0.732000
      9 C3           2.8230    -1.1030    -1.8470 ca         1 IPZ       0.519300
     10 O7           3.1460     0.1290    -2.3160 os         1 IPZ      -0.409100
     11 C11          3.9590    -0.0710    -3.4730 c3         1 IPZ       0.116700
     12 H91         -0.3610    -0.8190     0.6100 hc         1 IPZ       0.039367
     13 H92         -0.3610    -0.1190    -1.0140 hc         1 IPZ       0.039367
     14 H93         -0.3610     0.9380     0.4040 hc         1 IPZ       0.039367
     15 H8           1.8900     0.8850    -0.5100 hc         1 IPZ       0.070700
     16 H101         1.7710     0.9350     1.9200 hc         1 IPZ       0.039367
     17 H102         1.5910    -0.8240     1.9840 hc         1 IPZ       0.039367
     18 H103         3.1170    -0.1100     1.4450 hc         1 IPZ       0.039367
     19 H6           1.8960    -4.4910    -0.5090 h4         1 IPZ       0.032100
     20 H5           3.3050    -4.2710    -2.5190 h4         1 IPZ       0.030100
     21 H111         4.8510    -0.6210    -3.1980 h1         1 IPZ       0.049700
     22 H112         4.2420     0.8900    -3.8860 h1         1 IPZ       0.049700
     23 H113         3.4020    -0.6320    -4.2140 h1         1 IPZ       0.049700
@<TRIPOS>BOND
     1     1     2 1
     2     1    12 1
     3     1    13 1
     4     1    14 1
     5     2     3 1
     6     2     4 1
     7     2    15 1
     8     3    16 1
     9     3    17 1
    10     3    18 1
    11     4     5 ar
    12     4     9 ar
    13     5     6 ar
    14     6     7 ar
    15     6    19 1
    16     7     8 ar
    17     7    20 1
    18     8     9 ar
    19     9    10 1
    20    10    11 1
    21    11    21 1
    22    11    22 1
    23    11    23 1
@<TRIPOS>SUBSTRUCTURE
     1 IPZ         1 TEMP              0 ****  ****    0 ROOT
