@<TRIPOS>MOLECULE
IQ0
   17    17     1     0     0
SMALL
bcc


@<TRIPOS>ATOM
      1 C19        -0.0540    0.0970   -0.0510 c         1 IQ0      0.913600
      2 O5         -0.6310    0.9940    0.6280 o         1 IQ0     -0.848300
      3 C18         1.4900    0.0480   -0.0570 c3        1 IQ0     -0.180700
      4 C20         2.0580   -0.1250    1.3480 c3        1 IQ0     -0.064400
      5 C21         3.3520    0.6780    1.4120 c3        1 IQ0     -0.074400
      6 C22         3.3760    1.5970    0.1950 c3        1 IQ0     -0.074400
      7 C17         2.0950    1.3410   -0.5910 c3        1 IQ0     -0.064400
      8 OXT        -0.6670   -0.7730   -0.7330 o         1 IQ0     -0.848300
      9 H18         1.8090   -0.8120   -0.7010 hc        1 IQ0      0.032700
     10 H201        1.3190    0.2700    2.0930 hc        1 IQ0      0.039200
     11 H202        2.2410   -1.2020    1.5790 hc        1 IQ0      0.039200
     12 H171        1.3690    2.1800   -0.4310 hc        1 IQ0      0.039200
     13 H172        2.3030    1.2680   -1.6850 hc        1 IQ0      0.039200
     14 H211        4.2400   -0.0040    1.4010 hc        1 IQ0      0.013200
     15 H212        3.4030    1.2720    2.3580 hc        1 IQ0      0.013200
     16 H221        3.4420    2.6680    0.5090 hc        1 IQ0      0.013200
     17 H222        4.2750    1.3810   -0.4350 hc        1 IQ0      0.013200
@<TRIPOS>BOND
     1    1    2 1   
     2    1    3 1   
     3    1    8 1   
     4    3    4 1   
     5    3    7 1   
     6    3    9 1   
     7    4    5 1   
     8    4   10 1   
     9    4   11 1   
    10    5    6 1   
    11    5   14 1   
    12    5   15 1   
    13    6    7 1   
    14    6   16 1   
    15    6   17 1   
    16    7   12 1   
    17    7   13 1   
@<TRIPOS>SUBSTRUCTURE
     1 IQ0         1 TEMP              0 ****  ****    0 ROOT
