@<TRIPOS>MOLECULE
molecule
   17    17     1     0     0
SMALL
bcc


@<TRIPOS>ATOM
      1 C19          0.0000     0.0000     0.0000 c          1 IQ0       0.896600
      2 O5          -0.6040     0.0010     1.0460 o          1 IQ0      -0.853800
      3 C18          1.5070     0.0000     0.0000 c3         1 IQ0      -0.166700
      4 C20          2.0470     0.0000     1.4450 c3         1 IQ0      -0.064400
      5 C21          3.2930     0.9020     1.4490 c3         1 IQ0      -0.089900
      6 C22          3.4680     1.4180     0.0060 c3         1 IQ0      -0.089900
      7 C17          2.0500     1.3170    -0.6080 c3         1 IQ0      -0.064400
      8 OXT         -0.6700    -0.0060    -1.1620 o          1 IQ0      -0.853800
      9 H18          1.8920    -0.8530    -0.5450 hc         1 IQ0       0.038700
     10 H201         1.2990     0.4000     2.1190 hc         1 IQ0       0.043950
     11 H202         2.3180    -1.0070     1.7390 hc         1 IQ0       0.043950
     12 H171         2.1050     1.2450    -1.6880 hc         1 IQ0       0.043950
     13 H172         1.4400     2.1590    -0.3030 hc         1 IQ0       0.043950
     14 H211         3.1440     1.7360     2.1240 hc         1 IQ0       0.017950
     15 H212         4.1640     0.3290     1.7440 hc         1 IQ0       0.017950
     16 H221         4.1620     0.7890    -0.5390 hc         1 IQ0       0.017950
     17 H222         3.8050     2.4480     0.0120 hc         1 IQ0       0.017950
@<TRIPOS>BOND
     1     1     2 1
     2     1     3 1
     3     1     8 1
     4     3     4 1
     5     3     7 1
     6     4     5 1
     7     5     6 1
     8     6     7 1
     9     3     9 1
    10     4    10 1
    11     4    11 1
    12     7    12 1
    13     7    13 1
    14     5    14 1
    15     5    15 1
    16     6    16 1
    17     6    17 1
@<TRIPOS>SUBSTRUCTURE
     1 IQ0         1 TEMP              0 ****  ****    0 ROOT
