@<TRIPOS>MOLECULE
IQ1
   45    48     1     0     0
SMALL
bcc


@<TRIPOS>ATOM
      1 C25         0.0920    0.2480    0.3640 c3        1 IQ1     -0.088433
      2 C22         1.5500    0.0270   -0.0230 c3        1 IQ1     -0.075300
      3 C23         2.3960   -0.1520    1.2320 c3        1 IQ1     -0.088433
      4 C24         1.6550   -1.2270   -0.8810 c3        1 IQ1     -0.088433
      5 C2          2.0480    1.2290   -0.7870 cc        1 IQ1      0.427800
      6 N3          2.5420    1.2500   -2.0500 nd        1 IQ1     -0.660000
      7 N1          2.0550    2.5160   -0.2320 na        1 IQ1     -0.305900
      8 C5          2.5680    3.3930   -1.1960 cc        1 IQ1     -0.162600
      9 C6          2.6800    4.8200   -0.9730 ca        1 IQ1      0.024000
     10 C7          2.4450    5.7280   -2.0170 ca        1 IQ1     -0.240800
     11 C8          2.5440    7.1040   -1.7490 ca        1 IQ1      0.398700
     12 N9          2.8510    7.6090   -0.5380 nb        1 IQ1     -0.660000
     13 C10         3.0780    6.7280    0.4550 ca        1 IQ1      0.398700
     14 C11         3.0050    5.3340    0.2920 ca        1 IQ1     -0.240800
     15 C4          2.8750    2.5830   -2.3240 cd        1 IQ1      0.386800
     16 C12         3.4610    2.9860   -3.5870 ca        1 IQ1     -0.232800
     17 C13         4.4640    4.0170   -3.6220 ca        1 IQ1      0.421200
     18 N14         5.0660    4.4360   -4.7170 nb        1 IQ1     -0.659000
     19 C15         4.7150    3.8470   -5.9190 ca        1 IQ1      0.392600
     20 C16         5.3420    4.2730   -7.1330 ca        1 IQ1     -0.166300
     21 C21         3.1120    2.3850   -4.7780 ca        1 IQ1     -0.054000
     22 C20         3.7350    2.8100   -5.9860 ca        1 IQ1     -0.151300
     23 C19         3.4090    2.2320   -7.2400 ca        1 IQ1     -0.108000
     24 C18         4.0290    2.6640   -8.3860 ca        1 IQ1     -0.130000
     25 C17         5.0000    3.6900   -8.3290 ca        1 IQ1     -0.123000
     26 H251       -0.5240    0.4490   -0.5450 hc        1 IQ1      0.043589
     27 H252       -0.3030   -0.6660    0.8700 hc        1 IQ1      0.043589
     28 H253       -0.0100    1.1090    1.0660 hc        1 IQ1      0.043589
     29 H231        2.0760   -1.0780    1.7700 hc        1 IQ1      0.043589
     30 H232        3.4740   -0.2510    0.9620 hc        1 IQ1      0.043589
     31 H233        2.2760    0.7150    1.9240 hc        1 IQ1      0.043589
     32 H241        2.7160   -1.4120   -1.1760 hc        1 IQ1      0.043589
     33 H242        1.2840   -2.1060   -0.3010 hc        1 IQ1      0.043589
     34 H243        1.0400   -1.1210   -1.8060 hc        1 IQ1      0.043589
     35 H1          1.7290    2.7720    0.6630 hn        1 IQ1      0.304700
     36 H7          2.1930    5.3700   -3.0260 ha        1 IQ1      0.149000
     37 H11         3.2180    4.6720    1.1410 ha        1 IQ1      0.149000
     38 H8          2.3680    7.8460   -2.5490 h4        1 IQ1      0.026600
     39 H10         3.3340    7.1660    1.4360 h4        1 IQ1      0.026600
     40 H13         4.7680    4.5050   -2.6750 h4        1 IQ1      0.029100
     41 H21         2.3640    1.5790   -4.8160 ha        1 IQ1      0.154000
     42 H16         6.1000    5.0710   -7.0910 ha        1 IQ1      0.150000
     43 H17         5.4830    4.0180   -9.2620 ha        1 IQ1      0.135000
     44 H19         2.6530    1.4330   -7.2710 ha        1 IQ1      0.135000
     45 H18         3.7800    2.2170   -9.3610 ha        1 IQ1      0.134000
@<TRIPOS>BOND
     1    1    2 1   
     2    1   26 1   
     3    1   27 1   
     4    1   28 1   
     5    2    3 1   
     6    2    4 1   
     7    2    5 1   
     8    3   29 1   
     9    3   30 1   
    10    3   31 1   
    11    4   32 1   
    12    4   33 1   
    13    4   34 1   
    14    5    6 2   
    15    5    7 1   
    16    6   15 1   
    17    7    8 1   
    18    7   35 1   
    19    8    9 1   
    20    8   15 2   
    21    9   10 ar  
    22    9   14 ar  
    23   10   11 ar  
    24   10   36 1   
    25   11   12 ar  
    26   11   38 1   
    27   12   13 ar  
    28   13   14 ar  
    29   13   39 1   
    30   14   37 1   
    31   15   16 1   
    32   16   17 ar  
    33   16   21 ar  
    34   17   18 ar  
    35   17   40 1   
    36   18   19 ar  
    37   19   20 ar  
    38   19   22 ar  
    39   20   25 ar  
    40   20   42 1   
    41   21   22 ar  
    42   21   41 1   
    43   22   23 ar  
    44   23   24 ar  
    45   23   44 1   
    46   24   25 ar  
    47   24   45 1   
    48   25   43 1   
@<TRIPOS>SUBSTRUCTURE
     1 IQ1         1 TEMP              0 ****  ****    0 ROOT
