@<TRIPOS>MOLECULE
molecule
   45    48     1     0     0
SMALL
bcc


@<TRIPOS>ATOM
      1 C25          0.0000     0.0000     0.0000 c3         1 IQ1      -0.081767
      2 C22          1.5300     0.0000     0.0000 c3         1 IQ1      -0.084300
      3 C23          2.0400     0.0000     1.4430 c3         1 IQ1      -0.081767
      4 C24          2.0400    -1.2490    -0.7210 c3         1 IQ1      -0.081767
      5 C2           2.0320     1.2310    -0.7110 cc         1 IQ1       0.425800
      6 N3           2.5410     1.2500    -1.9110 nd         1 IQ1      -0.683000
      7 N1           2.0170     2.4820    -0.2050 na         1 IQ1      -0.276900
      8 C5           2.5570     3.3170    -1.1570 cc         1 IQ1      -0.190600
      9 C6           2.7470     4.7770    -1.0510 ca         1 IQ1       0.020000
     10 C7           2.3570     5.6300    -2.0920 ca         1 IQ1      -0.244800
     11 C8           2.5540     6.9870    -1.9510 ca         1 IQ1       0.424200
     12 N9           3.0980     7.4830    -0.8550 nb         1 IQ1      -0.689000
     13 C10          3.4800     6.7160     0.1480 ca         1 IQ1       0.424200
     14 C11          3.3160     5.3470     0.0940 ca         1 IQ1      -0.244800
     15 C4           2.8840     2.5110    -2.2330 cd         1 IQ1       0.395800
     16 C12          3.4950     2.9560    -3.5070 ca         1 IQ1      -0.236800
     17 C13          4.5360     3.9000    -3.5020 ca         1 IQ1       0.444200
     18 N14          5.0950     4.3090    -4.6120 nb         1 IQ1      -0.682000
     19 C15          4.7020     3.8520    -5.8060 ca         1 IQ1       0.416600
     20 C16          5.3150     4.3050    -6.9880 ca         1 IQ1      -0.164300
     21 C21          3.0480     2.4390    -4.7160 ca         1 IQ1      -0.051000
     22 C20          3.6590     2.8980    -5.8960 ca         1 IQ1      -0.159300
     23 C19          3.2550     2.4230    -7.1560 ca         1 IQ1      -0.107000
     24 C18          3.8740     2.8850    -8.2770 ca         1 IQ1      -0.129000
     25 C17          4.8990     3.8240    -8.1920 ca         1 IQ1      -0.120000
     26 H251        -0.3610    -0.9160     0.4530 hc         1 IQ1       0.042367
     27 H252        -0.3610     0.0660    -1.0190 hc         1 IQ1       0.042367
     28 H253        -0.3610     0.8500     0.5670 hc         1 IQ1       0.042367
     29 H231         3.1120     0.1600     1.4470 hc         1 IQ1       0.042367
     30 H232         1.8160    -0.9540     1.9050 hc         1 IQ1       0.042367
     31 H233         1.5540     0.7930     1.9980 hc         1 IQ1       0.042367
     32 H241         3.1220    -1.2270    -0.7600 hc         1 IQ1       0.042367
     33 H242         1.7160    -2.1330    -0.1860 hc         1 IQ1       0.042367
     34 H243         1.6430    -1.2720    -1.7290 hc         1 IQ1       0.042367
     35 H1           1.5660     2.7690     0.6420 hn         1 IQ1       0.305700
     36 H7           1.9100     5.2300    -2.9940 ha         1 IQ1       0.145000
     37 H11          3.6310     4.7230     0.9210 ha         1 IQ1       0.145000
     38 H8           2.2560     7.6560    -2.7490 h4         1 IQ1       0.027100
     39 H10          3.9210     7.1670     1.0280 h4         1 IQ1       0.027100
     40 H13          4.8860     4.2960    -2.5560 h4         1 IQ1       0.030100
     41 H21          2.1000     1.9170    -4.7640 ha         1 IQ1       0.151000
     42 H16          6.1140     5.0350    -6.9400 ha         1 IQ1       0.149000
     43 H17          5.3760     4.1770    -9.0990 ha         1 IQ1       0.132000
     44 H19          2.4590     1.6930    -7.2350 ha         1 IQ1       0.135000
     45 H18          3.5630     2.5200    -9.2480 ha         1 IQ1       0.130000
@<TRIPOS>BOND
     1     1     2 1
     2     2     3 1
     3     2     4 1
     4     2     5 1
     5     5     6 2
     6     5     7 1
     7     6    15 1
     8     7     8 1
     9     8     9 1
    10     8    15 2
    11     9    10 ar
    12     9    14 ar
    13    10    11 ar
    14    11    12 ar
    15    12    13 ar
    16    13    14 ar
    17    15    16 1
    18    16    17 ar
    19    16    21 ar
    20    17    18 ar
    21    18    19 ar
    22    19    20 ar
    23    19    22 ar
    24    20    25 ar
    25    21    22 ar
    26    22    23 ar
    27    23    24 ar
    28    24    25 ar
    29     1    26 1
    30     1    27 1
    31     1    28 1
    32     3    29 1
    33     3    30 1
    34     3    31 1
    35     4    32 1
    36     4    33 1
    37     4    34 1
    38     7    35 1
    39    10    36 1
    40    14    37 1
    41    11    38 1
    42    13    39 1
    43    17    40 1
    44    21    41 1
    45    20    42 1
    46    25    43 1
    47    23    44 1
    48    24    45 1
@<TRIPOS>SUBSTRUCTURE
     1 IQ1         1 TEMP              0 ****  ****    0 ROOT
