@<TRIPOS>MOLECULE
molecule
   26    27     1     0     0
SMALL
bcc


@<TRIPOS>ATOM
      1 C4           0.0000     0.0000     0.0000 c3         1 IQ5      -0.042800
      2 C3           1.5070     0.0000     0.0000 ca         1 IQ5      -0.132300
      3 C2           2.1960     0.0000     1.1920 ca         1 IQ5      -0.056000
      4 C1           3.5880     0.0000     1.2000 ca         1 IQ5      -0.081100
      5 S            4.7390     0.0010     2.5330 ss         1 IQ5      -0.187100
      6 C13          6.0800     0.0020     1.3950 cc         1 IQ5       0.679100
      7 N14          7.4140     0.0020     1.7490 nv         1 IQ5      -0.946800
      8 N12          5.6400     0.0020     0.1840 nd         1 IQ5      -0.669100
      9 C11          4.3040     0.0010    -0.0020 ca         1 IQ5       0.189400
     10 C10          3.5830     0.0020    -1.2140 ca         1 IQ5      -0.109000
     11 C5           2.2050    -0.0040    -1.2050 ca         1 IQ5       0.069600
     12 N6           1.5010    -0.0090    -2.4170 ns         1 IQ5      -0.474100
     13 C7           2.0800    -0.5000    -3.5300 c          1 IQ5       0.654100
     14 O8           3.1690    -1.0290    -3.4650 o          1 IQ5      -0.585100
     15 C9           1.3730    -0.3930    -4.8570 c3         1 IQ5      -0.172100
     16 H41C        -0.3610     0.0500     1.0200 hc         1 IQ5       0.041700
     17 H42C        -0.3610     0.8590    -0.5530 hc         1 IQ5       0.041700
     18 H43C        -0.3610    -0.9080    -0.4670 hc         1 IQ5       0.041700
     19 H2           1.6520    -0.0030     2.1290 ha         1 IQ5       0.135000
     20 H141         7.6750     0.0010     2.7150 hn         1 IQ5       0.449800
     21 H142         8.1200     0.0030     1.0400 hn         1 IQ5       0.449800
     22 H10          4.1160    -0.0020    -2.1580 ha         1 IQ5       0.187000
     23 H6           0.5380     0.2630    -2.4340 hn         1 IQ5       0.325500
     24 H91C         2.0370    -0.7210    -5.6480 hc         1 IQ5       0.063700
     25 H92C         0.4880    -1.0180    -4.8470 hc         1 IQ5       0.063700
     26 H93C         1.0860     0.6370    -5.0310 hc         1 IQ5       0.063700
@<TRIPOS>BOND
     1     1     2 1
     2     2     3 ar
     3     2    11 ar
     4     3     4 ar
     5     4     5 1
     6     4     9 ar
     7     5     6 1
     8     6     7 1
     9     6     8 2
    10     8     9 1
    11     9    10 ar
    12    10    11 ar
    13    11    12 1
    14    12    13 1
    15    13    14 2
    16    13    15 1
    17     1    16 1
    18     1    17 1
    19     1    18 1
    20     3    19 1
    21     7    20 1
    22     7    21 1
    23    10    22 1
    24    12    23 1
    25    15    24 1
    26    15    25 1
    27    15    26 1
@<TRIPOS>SUBSTRUCTURE
     1 IQ5         1 TEMP              0 ****  ****    0 ROOT
