@<TRIPOS>MOLECULE
IQ5
   26    27     1     0     0
SMALL
bcc


@<TRIPOS>ATOM
      1 C4           0.0000     0.0000     0.0000 c3         1 IQ5       0.070200
      2 C3           1.5070     0.0000     0.0000 ca         1 IQ5      -0.144300
      3 C2           2.1960     0.0000     1.1920 ca         1 IQ5      -0.014000
      4 C1           3.5880     0.0000     1.2000 ca         1 IQ5      -0.056100
      5 S            4.7390     0.0010     2.5330 ss         1 IQ5      -0.255100
      6 C13          6.0800     0.0020     1.3950 cc         1 IQ5       0.492100
      7 N14          7.4140     0.0020     1.7490 nv         1 IQ5      -0.436800
      8 N12          5.6400     0.0020     0.1840 nd         1 IQ5      -0.560100
      9 C11          4.3040     0.0010    -0.0020 ca         1 IQ5       0.151400
     10 C10          3.5830     0.0020    -1.2140 ca         1 IQ5      -0.093000
     11 C5           2.2050    -0.0040    -1.2050 ca         1 IQ5      -0.070400
     12 N6           1.5010    -0.0090    -2.4170 ns         1 IQ5      -0.037100
     13 C7           2.0800    -0.5000    -3.5300 c          1 IQ5       0.557100
     14 O8           3.1690    -1.0290    -3.4650 o          1 IQ5      -0.624100
     15 C9           1.3730    -0.3930    -4.8570 c3         1 IQ5      -0.070100
     16 H41C        -0.3610     0.0500     1.0200 hc         1 IQ5       0.006700
     17 H42C        -0.3610     0.8590    -0.5530 hc         1 IQ5       0.006700
     18 H43C        -0.3610    -0.9080    -0.4670 hc         1 IQ5       0.006700
     19 H2           1.6520    -0.0030     2.1290 ha         1 IQ5       0.110000
     20 H141         7.6750     0.0010     2.7150 hn         1 IQ5       0.273800
     21 H142         8.1200     0.0030     1.0400 hn         1 IQ5       0.273800
     22 H10          4.1160    -0.0020    -2.1580 ha         1 IQ5       0.166000
     23 H6           0.5380     0.2630    -2.4340 hn         1 IQ5       0.172500
     24 H91C         2.0370    -0.7210    -5.6480 hc         1 IQ5       0.024367
     25 H92C         0.4880    -1.0180    -4.8470 hc         1 IQ5       0.024367
     26 H93C         1.0860     0.6370    -5.0310 hc         1 IQ5       0.024367
@<TRIPOS>BOND
     1     1     2 1   
     2     1    16 1   
     3     1    17 1   
     4     1    18 1   
     5     2     3 ar  
     6     2    11 ar  
     7     3     4 ar  
     8     3    19 1   
     9     4     5 1   
    10     4     9 ar  
    11     5     6 1   
    12     6     7 1   
    13     6     8 2   
    14     7    20 1   
    15     7    21 1   
    16     8     9 1   
    17     9    10 ar  
    18    10    11 ar  
    19    10    22 1   
    20    11    12 1   
    21    12    13 1   
    22    12    23 1   
    23    13    14 2   
    24    13    15 1   
    25    15    24 1   
    26    15    25 1   
    27    15    26 1   
@<TRIPOS>SUBSTRUCTURE
     1 IQ5         1 TEMP              0 ****  ****    0 ROOT
