@<TRIPOS>MOLECULE
molecule
   42    45     1     0     0
SMALL
bcc


@<TRIPOS>ATOM
      1 C1           0.0000     0.0000     0.0000 ca         1 IQ6      -0.283300
      2 C2           1.3830     0.0000     0.0000 ca         1 IQ6      -0.044000
      3 C3           5.6700     0.9180     0.9330 ca         1 IQ6      -0.326300
      4 C4           4.7420    -0.9210    -0.3000 ca         1 IQ6      -0.295300
      5 C5          -0.6800    -0.0010     1.2070 ca         1 IQ6       0.449200
      6 C6           3.4590    -0.0000     2.9980 cc         1 IQ6      -0.070100
      7 C7           2.0390     0.0000     1.2310 ca         1 IQ6      -0.203100
      8 C8           4.6340     0.0010     0.7490 ca         1 IQ6       0.073200
      9 C9           3.4520    -0.0000     1.6420 cd         1 IQ6      -0.109400
     10 C10          1.2860    -0.0010     2.4180 ca         1 IQ6       0.465800
     11 C11          6.7570     0.8870     0.0710 ca         1 IQ6       0.724200
     12 C12          5.8530    -0.8820    -1.1160 ca         1 IQ6       0.571300
     13 C13          9.0700     4.3900     3.3780 c3         1 IQ6      -0.082400
     14 C14          8.2150     3.1750     3.7470 c3         1 IQ6      -0.078400
     15 C15          8.5350     5.0200     2.0920 c3         1 IQ6      -0.078400
     16 C16          8.2740     2.1480     2.6130 c3         1 IQ6      -0.095400
     17 C17          8.5930     3.9940     0.9580 c3         1 IQ6      -0.095400
     18 C18          7.7380     2.7780     1.3260 c3         1 IQ6       0.244500
     19 N19         -0.0400    -0.0060     2.3580 nb         1 IQ6      -0.713000
     20 N20          6.8150     0.0010    -0.9130 nb         1 IQ6      -0.770000
     21 N21          2.1770    -0.0010     3.4650 na         1 IQ6      -0.275100
     22 N22          7.7960     1.7950     0.2410 nu         1 IQ6      -0.913900
     23 Cl1          5.9910    -2.0110    -2.4270 cl         1 IQ6      -0.165000
     24 H1          -0.5470     0.0040    -0.9350 ha         1 IQ6       0.140000
     25 H2           1.9400     0.0010    -0.9290 ha         1 IQ6       0.145000
     26 H3           5.6240     1.6460     1.7350 ha         1 IQ6       0.145000
     27 H4           3.9590    -1.6480    -0.4750 ha         1 IQ6       0.153000
     28 H5          -1.7630    -0.0010     1.2040 h4         1 IQ6       0.025100
     29 H6           4.3480    -0.0010     3.6170 h4         1 IQ6       0.176000
     30 H8           9.0260     5.1170     4.1800 hc         1 IQ6       0.044200
     31 H9           7.1890     3.4880     3.8950 hc         1 IQ6       0.044450
     32 H10          8.5980     2.7280     4.6560 hc         1 IQ6       0.044450
     33 H11          7.5080     5.3310     2.2430 hc         1 IQ6       0.044450
     34 H12          9.1420     5.8780     1.8320 hc         1 IQ6       0.044450
     35 H13          9.3010     1.8380     2.4610 hc         1 IQ6       0.050450
     36 H14          7.6670     1.2900     2.8730 hc         1 IQ6       0.050450
     37 H15          8.2110     4.4410     0.0490 hc         1 IQ6       0.050450
     38 H16          9.6190     3.6800     0.8100 hc         1 IQ6       0.050450
     39 H17          6.7130     3.0930     1.4800 h1         1 IQ6       0.060700
     40 H18          1.9210    -0.0010     4.4330 hn         1 IQ6       0.307700
     41 H19          8.5610     1.8070    -0.4040 hn         1 IQ6       0.451800
     42 H7          10.0950     4.0750     3.2250 hc         1 IQ6       0.044200
@<TRIPOS>BOND
     1    17    15 1
     2    17    18 1
     3    15    13 1
     4    13    14 1
     5    18    22 1
     6    18    16 1
     7    22    11 1
     8    16    14 1
     9    11    20 ar
    10    11     3 ar
    11    20    12 ar
    12     3     8 ar
    13     2     1 ar
    14     2     7 ar
    15     1     5 ar
    16    12    23 1
    17    12     4 ar
    18     8     4 ar
    19     8     9 1
    20     7     9 1
    21     7    10 ar
    22     9     6 2
    23     5    19 ar
    24    10    19 ar
    25    10    21 1
    26     6    21 1
    27     1    24 1
    28     2    25 1
    29     3    26 1
    30     4    27 1
    31     5    28 1
    32     6    29 1
    33    13    42 1
    34    13    30 1
    35    14    31 1
    36    14    32 1
    37    15    33 1
    38    15    34 1
    39    16    35 1
    40    16    36 1
    41    17    37 1
    42    17    38 1
    43    18    39 1
    44    21    40 1
    45    22    41 1
@<TRIPOS>SUBSTRUCTURE
     1 IQ6         1 TEMP              0 ****  ****    0 ROOT
