@<TRIPOS>MOLECULE
IQ6
   42    45     1     0     0
SMALL
bcc


@<TRIPOS>ATOM
      1 C1           0.0000     0.0000     0.0000 ca         1 IQ6      -0.251300
      2 C2           1.3830     0.0000     0.0000 ca         1 IQ6      -0.013000
      3 C3           5.6700     0.9180     0.9330 ca         1 IQ6      -0.321300
      4 C4           4.7420    -0.9210    -0.3000 ca         1 IQ6      -0.284300
      5 C5          -0.6800    -0.0010     1.2070 ca         1 IQ6       0.417200
      6 C6           3.4590    -0.0000     2.9980 cc         1 IQ6      -0.248100
      7 C7           2.0390     0.0000     1.2310 ca         1 IQ6      -0.200100
      8 C8           4.6340     0.0010     0.7490 ca         1 IQ6       0.095200
      9 C9           3.4520    -0.0000     1.6420 cd         1 IQ6      -0.094400
     10 C10          1.2860    -0.0010     2.4180 ca         1 IQ6       0.227800
     11 C11          6.7570     0.8870     0.0710 ca         1 IQ6       0.537200
     12 C12          5.8530    -0.8820    -1.1160 ca         1 IQ6       0.459300
     13 C13          9.0700     4.3900     3.3780 c3         1 IQ6      -0.027400
     14 C14          8.2150     3.1750     3.7470 c3         1 IQ6      -0.018900
     15 C15          8.5350     5.0200     2.0920 c3         1 IQ6      -0.018900
     16 C16          8.2740     2.1480     2.6130 c3         1 IQ6      -0.041400
     17 C17          8.5930     3.9940     0.9580 c3         1 IQ6      -0.041400
     18 C18          7.7380     2.7780     1.3260 c3         1 IQ6       0.130500
     19 N19         -0.0400    -0.0060     2.3580 nb         1 IQ6      -0.579000
     20 N20          6.8150     0.0010    -0.9130 nb         1 IQ6      -0.646000
     21 N21          2.1770    -0.0010     3.4650 na         1 IQ6       0.269900
     22 N22          7.7960     1.7950     0.2410 nu         1 IQ6      -0.509900
     23 Cl1          5.9910    -2.0110    -2.4270 cl         1 IQ6      -0.103000
     24 H1          -0.5470     0.0040    -0.9350 ha         1 IQ6       0.115000
     25 H2           1.9400     0.0010    -0.9290 ha         1 IQ6       0.113000
     26 H3           5.6240     1.6460     1.7350 ha         1 IQ6       0.133000
     27 H4           3.9590    -1.6480    -0.4750 ha         1 IQ6       0.131000
     28 H5          -1.7630    -0.0010     1.2040 h4         1 IQ6      -0.021900
     29 H6           4.3480    -0.0010     3.6170 h4         1 IQ6       0.146000
     30 H8           9.0260     5.1170     4.1800 hc         1 IQ6       0.015700
     31 H9           7.1890     3.4880     3.8950 hc         1 IQ6       0.015200
     32 H10          8.5980     2.7280     4.6560 hc         1 IQ6       0.015200
     33 H11          7.5080     5.3310     2.2430 hc         1 IQ6       0.015200
     34 H12          9.1420     5.8780     1.8320 hc         1 IQ6       0.015200
     35 H13          9.3010     1.8380     2.4610 hc         1 IQ6       0.022200
     36 H14          7.6670     1.2900     2.8730 hc         1 IQ6       0.022200
     37 H15          8.2110     4.4410     0.0490 hc         1 IQ6       0.022200
     38 H16          9.6190     3.6800     0.8100 hc         1 IQ6       0.022200
     39 H17          6.7130     3.0930     1.4800 h1         1 IQ6       0.042700
     40 H18          1.9210    -0.0010     4.4330 hn         1 IQ6       0.119700
     41 H19          8.5610     1.8070    -0.4040 hn         1 IQ6       0.301800
     42 H7          10.0950     4.0750     3.2250 hc         1 IQ6       0.015700
@<TRIPOS>BOND
     1     1     2 ar  
     2     1     5 ar  
     3     1    24 1   
     4     2     7 ar  
     5     2    25 1   
     6     3     8 ar  
     7     3    11 ar  
     8     3    26 1   
     9     4     8 ar  
    10     4    12 ar  
    11     4    27 1   
    12     5    19 ar  
    13     5    28 1   
    14     6     9 2   
    15     6    21 1   
    16     6    29 1   
    17     7     9 1   
    18     7    10 ar  
    19     8     9 1   
    20    10    19 ar  
    21    10    21 1   
    22    11    20 ar  
    23    11    22 1   
    24    12    20 ar  
    25    12    23 1   
    26    13    14 1   
    27    13    15 1   
    28    13    30 1   
    29    13    42 1   
    30    14    16 1   
    31    14    31 1   
    32    14    32 1   
    33    15    17 1   
    34    15    33 1   
    35    15    34 1   
    36    16    18 1   
    37    16    35 1   
    38    16    36 1   
    39    17    18 1   
    40    17    37 1   
    41    17    38 1   
    42    18    22 1   
    43    18    39 1   
    44    21    40 1   
    45    22    41 1   
@<TRIPOS>SUBSTRUCTURE
     1 IQ6         1 TEMP              0 ****  ****    0 ROOT
