@<TRIPOS>MOLECULE
IQ7
   56    59     1     0     0
SMALL
bcc


@<TRIPOS>ATOM
      1 C1           0.0000     0.0000     0.0000 c3         1 IQ7       0.256700
      2 O2           1.4290     0.0000     0.0000 os         1 IQ7      -0.420600
      3 C3           2.0100     0.0000     1.3050 c3         1 IQ7       0.195400
      4 C4           3.5350    -0.0000     1.1840 c3         1 IQ7       0.049000
      5 N5           3.9760     1.2520     0.5640 ns         1 IQ7      -0.197900
      6 C6           5.2890     1.4750     0.3560 c          1 IQ7       0.599700
      7 O7           6.1070     0.6370     0.6820 o          1 IQ7      -0.652100
      8 C8           5.7330     2.7370    -0.2690 ca         1 IQ7      -0.179600
      9 C9           4.7880     3.7010    -0.6440 ca         1 IQ7      -0.074000
     10 C10          5.1860     4.8710    -1.2230 ca         1 IQ7      -0.099000
     11 C11          6.5350     5.1180    -1.4460 ca         1 IQ7      -0.242200
     12 N12          7.2320     6.1740    -1.9960 na         1 IQ7       0.294700
     13 C13          6.6570     7.4110    -2.5280 c3         1 IQ7      -0.052700
     14 C14          6.5370     8.4430    -1.4050 c3         1 IQ7       0.183400
     15 O15          5.9750     9.6500    -1.9250 os         1 IQ7      -0.418600
     16 C16          5.8200    10.6850    -0.9510 c3         1 IQ7       0.256700
     17 C17          8.5650     5.8500    -1.9510 cc         1 IQ7       0.329400
     18 N18          8.7140     4.6630    -1.4080 nd         1 IQ7      -0.486100
     19 C19          7.4990     4.1610    -1.0760 ca         1 IQ7       0.052400
     20 C20          7.0890     2.9680    -0.4780 ca         1 IQ7       0.041000
     21 C21          9.6590     6.7020    -2.4380 cc         1 IQ7      -0.452500
     22 C22         10.9410     6.3110    -2.7060 cd         1 IQ7       0.393200
     23 N23         11.6220     7.3750    -3.1260 nd         1 IQ7      -0.610000
     24 C24         10.8320     8.4290    -3.1380 cc         1 IQ7       0.266000
     25 N25          9.5920     8.0510    -2.7200 na         1 IQ7       0.228100
     26 C26         11.2250     9.7950    -3.5450 ca         1 IQ7      -0.111500
     27 C27         12.5320    10.0540    -3.9620 ca         1 IQ7      -0.079500
     28 C28         12.8930    11.3300    -4.3410 ca         1 IQ7      -0.095000
     29 C29         11.9610    12.3530    -4.3070 ca         1 IQ7      -0.032600
     30 Cl30        12.4220    13.9580    -4.7850 cl         1 IQ7      -0.024400
     31 C31         10.6630    12.1040    -3.8940 ca         1 IQ7      -0.095000
     32 C32         10.2890    10.8310    -3.5180 ca         1 IQ7      -0.079500
     33 H11C        -0.3610     0.0100    -1.0210 h1         1 IQ7      -0.011967
     34 H12C        -0.3610    -0.8900     0.5020 h1         1 IQ7      -0.011967
     35 H13C        -0.3610     0.8790     0.5190 h1         1 IQ7      -0.011967
     36 H31C         1.6910     0.8850     1.8430 h1         1 IQ7      -0.003300
     37 H32C         1.6910    -0.8840     1.8430 h1         1 IQ7      -0.003300
     38 H41C         3.8490    -0.8370     0.5700 h1         1 IQ7       0.034200
     39 H42C         3.9760    -0.0900     2.1690 h1         1 IQ7       0.034200
     40 H5           3.3040     1.9540     0.3230 hn         1 IQ7       0.183500
     41 H9           3.7340     3.5160    -0.4740 ha         1 IQ7       0.104000
     42 H20          7.8250     2.2880    -0.0660 ha         1 IQ7       0.136000
     43 H10          4.4480     5.6100    -1.5090 ha         1 IQ7       0.103000
     44 H131         7.2980     7.8010    -3.3100 h1         1 IQ7       0.045700
     45 H132         5.6740     7.2060    -2.9360 h1         1 IQ7       0.045700
     46 H141         5.8960     8.0540    -0.6230 h1         1 IQ7       0.003700
     47 H142         7.5200     8.6490    -0.9970 h1         1 IQ7       0.003700
     48 H161         5.0310    10.4160    -0.2600 h1         1 IQ7      -0.007300
     49 H162         6.7490    10.8110    -0.4070 h1         1 IQ7      -0.007300
     50 H163         5.5640    11.6130    -1.4490 h1         1 IQ7      -0.007300
     51 H22         11.3350     5.3080    -2.5960 h4         1 IQ7       0.021100
     52 H25          8.7880     8.6400    -2.6280 hn         1 IQ7       0.140700
     53 H27         13.2620     9.2530    -3.9890 ha         1 IQ7       0.115000
     54 H32          9.2730    10.6360    -3.1960 ha         1 IQ7       0.115000
     55 H28         13.9070    11.5320    -4.6640 ha         1 IQ7       0.117000
     56 H31          9.9380    12.9090    -3.8720 ha         1 IQ7       0.117000
@<TRIPOS>BOND
     1     1     2 1   
     2     1    33 1   
     3     1    34 1   
     4     1    35 1   
     5     2     3 1   
     6     3     4 1   
     7     3    36 1   
     8     3    37 1   
     9     4     5 1   
    10     4    38 1   
    11     4    39 1   
    12     5     6 1   
    13     5    40 1   
    14     6     7 2   
    15     6     8 1   
    16     8     9 ar  
    17     8    20 ar  
    18     9    10 ar  
    19     9    41 1   
    20    10    11 ar  
    21    10    43 1   
    22    11    12 1   
    23    11    19 ar  
    24    12    13 1   
    25    12    17 1   
    26    13    14 1   
    27    13    44 1   
    28    13    45 1   
    29    14    15 1   
    30    14    46 1   
    31    14    47 1   
    32    15    16 1   
    33    16    48 1   
    34    16    49 1   
    35    16    50 1   
    36    17    18 2   
    37    17    21 1   
    38    18    19 1   
    39    19    20 ar  
    40    20    42 1   
    41    21    22 2   
    42    21    25 1   
    43    22    23 1   
    44    22    51 1   
    45    23    24 2   
    46    24    25 1   
    47    24    26 1   
    48    25    52 1   
    49    26    27 ar  
    50    26    32 ar  
    51    27    28 ar  
    52    27    53 1   
    53    28    29 ar  
    54    28    55 1   
    55    29    30 1   
    56    29    31 ar  
    57    31    32 ar  
    58    31    56 1   
    59    32    54 1   
@<TRIPOS>SUBSTRUCTURE
     1 IQ7         1 TEMP              0 ****  ****    0 ROOT
