@<TRIPOS>MOLECULE
IQA
   33    36     1     0     0
SMALL
bcc


@<TRIPOS>ATOM
      1 O21         0.4410    0.2170    0.3400 o         1 IQA     -0.834800
      2 C20         1.2210   -0.5380   -0.2970 c         1 IQA      0.918600
      3 O22         1.2550   -1.8000   -0.1570 o         1 IQA     -0.834800
      4 C18         2.1450    0.1030   -1.3560 c3        1 IQA     -0.146200
      5 C5          3.5660    0.0970   -1.0000 cc        1 IQA     -0.098400
      6 C8          4.3620   -1.0230   -0.7240 cd        1 IQA      0.076500
      7 N11         3.9820   -2.3600   -0.6800 n         1 IQA     -0.435100
      8 C10         4.9120   -3.3520   -0.4220 c         1 IQA      0.705100
      9 O19         4.5560   -4.5450   -0.3110 o         1 IQA     -0.651500
     10 C12         6.3420   -2.9500   -0.3330 ca        1 IQA     -0.191600
     11 C17         7.3080   -3.9490   -0.2000 ca        1 IQA     -0.046000
     12 C16         8.6600   -3.6280   -0.1430 ca        1 IQA     -0.191000
     13 C15         9.0500   -2.2920   -0.2370 ca        1 IQA     -0.085000
     14 C14         8.1110   -1.2780   -0.3670 ca        1 IQA     -0.195000
     15 C13         6.7290   -1.5790   -0.3920 ca        1 IQA      0.095800
     16 N9          5.7270   -0.6180   -0.4740 na        1 IQA     -0.024500
     17 C7          5.7660    0.7880   -0.5660 ca        1 IQA     -0.040200
     18 C6          4.4320    1.2520   -0.8930 ca        1 IQA     -0.045800
     19 C4          4.1820    2.6160   -1.0200 ca        1 IQA     -0.090000
     20 C1          5.2240    3.5160   -0.8260 ca        1 IQA     -0.156000
     21 C2          6.5050    3.0680   -0.4860 ca        1 IQA     -0.144000
     22 C3          6.7910    1.7140   -0.3410 ca        1 IQA     -0.140000
     23 H181        1.8060    1.1590   -1.5220 hc        1 IQA      0.041700
     24 H182        2.0010   -0.4670   -2.3130 hc        1 IQA      0.041700
     25 H11         2.9770   -2.5340   -0.6100 hn        1 IQA      0.420500
     26 H17         6.9710   -4.9980   -0.1430 ha        1 IQA      0.158000
     27 H16         9.4130   -4.4200   -0.0320 ha        1 IQA      0.127000
     28 H15        10.1200   -2.0330   -0.2120 ha        1 IQA      0.122000
     29 H14         8.4620   -0.2430   -0.4700 ha        1 IQA      0.141000
     30 H4          3.1650    2.9640   -1.2540 ha        1 IQA      0.146000
     31 H1          5.0380    4.5950   -0.9260 ha        1 IQA      0.118000
     32 H2          7.3060    3.8030   -0.3170 ha        1 IQA      0.114000
     33 H3          7.7970    1.4120   -0.0270 ha        1 IQA      0.123000
@<TRIPOS>BOND
     1    1    2 1   
     2    2    3 1   
     3    2    4 1   
     4    4    5 1   
     5    4   23 1   
     6    4   24 1   
     7    5    6 2   
     8    5   18 1   
     9    6    7 1   
    10    6   16 1   
    11    7    8 1   
    12    7   25 1   
    13    8    9 2   
    14    8   10 1   
    15   10   11 ar  
    16   10   15 ar  
    17   11   12 ar  
    18   11   26 1   
    19   12   13 ar  
    20   12   27 1   
    21   13   14 ar  
    22   13   28 1   
    23   14   15 ar  
    24   14   29 1   
    25   15   16 1   
    26   16   17 1   
    27   17   18 ar  
    28   17   22 ar  
    29   18   19 ar  
    30   19   20 ar  
    31   19   30 1   
    32   20   21 ar  
    33   20   31 1   
    34   21   22 ar  
    35   21   32 1   
    36   22   33 1   
@<TRIPOS>SUBSTRUCTURE
     1 IQA         1 TEMP              0 ****  ****    0 ROOT
