@<TRIPOS>MOLECULE
IQB
   47    51     1     0     0
SMALL
bcc


@<TRIPOS>ATOM
      1 C1           0.0000     0.0000     0.0000 ca         1 IQB      -0.605000
      2 C2           1.3630     0.0000     0.0000 ca         1 IQB       0.048000
      3 C3           2.0810     0.0000     1.1940 ca         1 IQB      -0.146000
      4 C4           1.4450    -0.0010     2.3980 ca         1 IQB      -0.010000
      5 C5           0.0410    -0.0020     2.4380 ca         1 IQB      -0.131000
      6 C6          -0.6690    -0.0030     3.6480 c2         1 IQB      -0.025000
      7 N7          -1.9820    -0.0040     3.6340 n2         1 IQB      -0.065000
      8 C8          -2.6890    -0.0020     2.5130 c2         1 IQB      -0.044000
      9 C9          -2.0940    -0.0020     1.2880 c2         1 IQB      -0.173000
     10 C10         -0.6890     0.0050     1.2200 ca         1 IQB       0.067000
     11 S           -0.8880     0.0010    -1.5210 s6         1 IQB       2.390000
     12 O1          -1.8620    -1.0270    -1.4000 o          1 IQB      -0.862000
     13 O2           0.0970     0.0840    -2.5430 o          1 IQB      -0.862000
     14 N1'         -1.7360     1.4200    -1.5980 n7         1 IQB      -0.563000
     15 C2'         -1.0240     2.6980    -1.6730 c3         1 IQB      -0.009000
     16 C3'         -2.0310     3.8330    -1.8590 c3         1 IQB      -0.115000
     17 N4'         -1.3150     5.1140    -1.9340 n7         1 IQB      -0.072000
     18 C5'         -2.3360     6.1560    -2.1120 DU         1 IQB       0.046000
     19 C6'         -1.6670     7.5040    -2.1970 c2         1 IQB      -0.107000
     20 C7'         -1.8140     8.2500    -3.2830 c2         1 IQB      -0.035000
     21 C1'         -1.1570     9.5710    -3.3680 c3         1 IQB       0.029000
     22 C2B         -1.3100    10.3580    -4.5100 c2         1 IQB      -0.163000
     23 C3B         -0.6950    11.5900    -4.5820 c2         1 IQB      -0.044500
     24 C4'          0.0720    12.0470    -3.5260 c2         1 IQB      -0.148000
     25 Br4'         0.9120    13.7370    -3.6340 br         1 IQB       0.006000
     26 C5B          0.2330    11.2690    -2.3930 c2         1 IQB      -0.044500
     27 C6B         -0.3820    10.0370    -2.3060 c2         1 IQB      -0.163000
     28 H2           1.8960     0.0010    -0.9430 ha         1 IQB       0.130000
     29 H3           3.1640     0.0000     1.1640 ha         1 IQB       0.112000
     30 H4           2.0170    -0.0010     3.3180 ha         1 IQB       0.107000
     31 H6          -0.1360    -0.0040     4.5910 h4         1 IQB       0.119000
     32 H8          -3.7710    -0.0030     2.5720 h4         1 IQB       0.116000
     33 H9          -2.6910    -0.0010     0.3840 ha         1 IQB       0.142000
     34 HN1         -2.7370     1.4030    -1.6210 hn         1 IQB       0.145000
     35 H2'1        -0.3390     2.6810    -2.5120 h1         1 IQB       0.061000
     36 H2'2        -0.4690     2.8560    -0.7560 h1         1 IQB       0.061000
     37 H3'1        -2.5870     3.6760    -2.7760 h1         1 IQB       0.049500
     38 H3'2        -2.7160     3.8510    -1.0200 h1         1 IQB       0.049500
     39 HN4         -0.8230     5.2720    -1.0780 hn         1 IQB       0.059000
     40 H5'1        -3.0150     6.1440    -1.2680 ha         1 IQB       0.049500
     41 H5'2        -2.8890     5.9690    -3.0240 ha         1 IQB       0.049500
     42 H6'         -2.7180     7.3560    -1.9800 DU         1 IQB       0.003000
     43 H7'         -2.1780     9.1460    -2.7960 DU         1 IQB       0.073000
     44 H2'         -1.9110    10.0020    -5.3380 ha         1 IQB       0.121500
     45 H3'         -0.8130    12.2020    -5.4690 ha         1 IQB       0.115500
     46 H5'          0.8350    11.6310    -1.5680 ha         1 IQB       0.115500
     47 H6B         -0.2550     9.4290    -1.4190 ha         1 IQB       0.121500
@<TRIPOS>BOND
     1     1     2 1   
     2     1    10 1   
     3     1    11 1   
     4     2     3 1   
     5     2    28 1   
     6     3     4 1   
     7     3    29 1   
     8     4     5 1   
     9     4    30 1   
    10     5     6 1   
    11     5    10 1   
    12     6     7 1   
    13     6    31 1   
    14     7     8 1   
    15     8     9 1   
    16     8    32 1   
    17     9    10 1   
    18     9    33 1   
    19    11    12 1   
    20    11    13 1   
    21    11    14 1   
    22    14    15 1   
    23    14    34 1   
    24    15    16 1   
    25    15    35 1   
    26    15    36 1   
    27    16    17 1   
    28    16    37 1   
    29    16    38 1   
    30    17    18 1   
    31    17    39 1   
    32    18    19 1   
    33    18    40 1   
    34    18    41 1   
    35    18    42 1   
    36    19    20 1   
    37    19    42 1   
    38    20    21 1   
    39    20    43 1   
    40    21    22 1   
    41    21    27 1   
    42    21    43 1   
    43    22    23 1   
    44    22    44 1   
    45    23    24 1   
    46    23    45 1   
    47    24    25 1   
    48    24    26 1   
    49    26    27 1   
    50    26    46 1   
    51    27    47 1   
@<TRIPOS>SUBSTRUCTURE
     1 IQB         1 TEMP              0 ****  ****    0 ROOT
