@<TRIPOS>MOLECULE
IQD
   19    20     1     0     0
SMALL
bcc


@<TRIPOS>ATOM
      1 O01          0.0000     0.0000     0.0000 oh         1 IQD      -0.490100
      2 C02          1.3600     0.0000     0.0000 ca         1 IQD       0.126100
      3 C03          2.0600     0.0000     1.2020 ca         1 IQD      -0.134000
      4 C04          3.4430     0.0000     1.2020 ca         1 IQD      -0.091000
      5 C05          4.1440    -0.0020     0.0130 ca         1 IQD      -0.045000
      6 C06          3.4520    -0.0030    -1.1970 ca         1 IQD      -0.172600
      7 C07          4.1610    -0.0040    -2.4900 c          1 IQD       0.720100
      8 O08          5.3770    -0.0050    -2.4960 o          1 IQD      -0.536100
      9 N09          3.5050    -0.0060    -3.6590 ne         1 IQD      -0.567100
     10 C10          2.2190    -0.0040    -3.7660 c2         1 IQD       0.505200
     11 C11          1.3500    -0.0030    -2.5270 c3         1 IQD      -0.068400
     12 C12          2.0530    -0.0070    -1.1900 ca         1 IQD      -0.086300
     13 H1          -0.3140     0.7200     0.5220 ho         1 IQD       0.406000
     14 H2           1.5200     0.0010     2.1410 ha         1 IQD       0.112000
     15 H3           3.9800     0.0000     2.1430 ha         1 IQD       0.109000
     16 H4           5.2280    -0.0010     0.0210 ha         1 IQD       0.128000
     17 H5           1.7590    -0.0060    -4.7460 h4         1 IQD      -0.011200
     18 H6           0.7330    -0.8920    -2.5680 hc         1 IQD       0.048200
     19 H7           0.7390     0.8910    -2.5660 hc         1 IQD       0.048200
@<TRIPOS>BOND
     1     1     2 1   
     2     1    13 1   
     3     2     3 ar  
     4     2    12 ar  
     5     3     4 ar  
     6     3    14 1   
     7     4     5 ar  
     8     4    15 1   
     9     5     6 ar  
    10     5    16 1   
    11     6     7 1   
    12     6    12 ar  
    13     7     8 2   
    14     7     9 1   
    15     9    10 2   
    16    10    11 1   
    17    10    17 1   
    18    11    12 1   
    19    11    18 1   
    20    11    19 1   
@<TRIPOS>SUBSTRUCTURE
     1 IQD         1 TEMP              0 ****  ****    0 ROOT
