@<TRIPOS>MOLECULE
molecule
   19    20     1     0     0
SMALL
bcc


@<TRIPOS>ATOM
      1 O01          0.0000     0.0000     0.0000 oh         1 IQD      -0.513100
      2 C02          1.3600     0.0000     0.0000 ca         1 IQD       0.107100
      3 C03          2.0600     0.0000     1.2020 ca         1 IQD      -0.153000
      4 C04          3.4430     0.0000     1.2020 ca         1 IQD      -0.121000
      5 C05          4.1440    -0.0020     0.0130 ca         1 IQD      -0.075000
      6 C06          3.4520    -0.0030    -1.1970 ca         1 IQD      -0.174600
      7 C07          4.1610    -0.0040    -2.4900 c          1 IQD       0.721100
      8 O08          5.3770    -0.0050    -2.4960 o          1 IQD      -0.501100
      9 N09          3.5050    -0.0060    -3.6590 ne         1 IQD      -0.675100
     10 C10          2.2190    -0.0040    -3.7660 c2         1 IQD       0.536200
     11 C11          1.3500    -0.0030    -2.5270 c3         1 IQD      -0.156400
     12 C12          2.0530    -0.0070    -1.1900 ca         1 IQD      -0.071300
     13 H1          -0.3140     0.7200     0.5220 ho         1 IQD       0.423000
     14 H2           1.5200     0.0010     2.1410 ha         1 IQD       0.140000
     15 H3           3.9800     0.0000     2.1430 ha         1 IQD       0.140000
     16 H4           5.2280    -0.0010     0.0210 ha         1 IQD       0.159000
     17 H5           1.7590    -0.0060    -4.7460 h4         1 IQD       0.041800
     18 H6           0.7330    -0.8920    -2.5680 hc         1 IQD       0.086200
     19 H7           0.7390     0.8910    -2.5660 hc         1 IQD       0.086200
@<TRIPOS>BOND
     1     1     2 1
     2     3     2 ar
     3     3     4 ar
     4     2    12 ar
     5     4     5 ar
     6    12    11 1
     7    12     6 ar
     8    11    10 1
     9     5     6 ar
    10     6     7 1
    11    10     9 2
    12     7     9 1
    13     7     8 2
    14     1    13 1
    15     3    14 1
    16     4    15 1
    17     5    16 1
    18    10    17 1
    19    11    18 1
    20    11    19 1
@<TRIPOS>SUBSTRUCTURE
     1 IQD         1 TEMP              0 ****  ****    0 ROOT
