@<TRIPOS>MOLECULE
IQG
   58    63     1     0     0
SMALL
bcc


@<TRIPOS>ATOM
      1 P            0.0000     0.0000     0.0000 p5         1 IQG       0.694900
      2 OP1          1.4800     0.0000     0.0000 o          1 IQG      -0.712167
      3 OP2         -0.5370     0.0000     1.5180 o          1 IQG      -0.712167
      4 O5'         -0.5370     1.3140    -0.7590 os         1 IQG      -0.471200
      5 C5'         -0.1490     1.6570    -2.0910 c3         1 IQG       0.287400
      6 C4'         -0.8380     2.9590    -2.5030 c3         1 IQG       0.153100
      7 O4'         -0.3520     4.0650    -1.7130 os         1 IQG      -0.358600
      8 C1'         -0.6280     5.2650    -2.4550 c3         1 IQG       0.139800
      9 N9           0.4330     6.2480    -2.2240 na         1 IQG       0.298100
     10 C8           1.7160     5.9780    -1.8440 cc         1 IQG       0.263400
     11 N7           2.3860     7.0870    -1.7320 nd         1 IQG      -0.551000
     12 C5           1.5770     8.1320    -2.0330 cd         1 IQG       0.134800
     13 C6           1.7560     9.5350    -2.0800 c          1 IQG       0.554000
     14 O6           2.8350    10.0360    -1.8110 o          1 IQG      -0.689500
     15 N1           0.7020    10.3050    -2.4300 ns         1 IQG      -0.039400
     16 C2          -0.5000     9.7330    -2.7280 cd         1 IQG       0.345800
     17 N2          -1.5530    10.5410    -3.0810 nu         1 IQG      -0.237600
     18 C23         -2.8220     9.9860    -3.2810 ca         1 IQG      -0.104700
     19 C22         -3.6800    10.5430    -4.2570 ca         1 IQG       0.384600
     20 N21         -3.2970    11.5900    -4.9920 nb         1 IQG      -0.619000
     21 C20         -4.0880    12.1130    -5.8980 ca         1 IQG       0.399200
     22 C19         -5.3600    11.6050    -6.1400 ca         1 IQG      -0.265300
     23 C18         -5.8130    10.5310    -5.4220 ca         1 IQG      -0.055000
     24 C17         -4.9640     9.9790    -4.4540 ca         1 IQG      -0.080300
     25 C16         -5.3670     8.8350    -3.6430 ca         1 IQG       0.077400
     26 N15         -6.4930     8.0840    -3.5760 nc         1 IQG      -0.599100
     27 C14         -6.3490     7.1610    -2.6570 cd         1 IQG       0.307700
     28 N14         -7.3010     6.2180    -2.3210 nv         1 IQG      -0.487800
     29 N13         -5.1170     7.2720    -2.0830 na         1 IQG       0.301700
     30 C13         -4.5760     6.4250    -1.0160 c3         1 IQG      -0.011400
     31 C12         -4.4710     8.3330    -2.6950 ca         1 IQG      -0.267200
     32 C11         -3.2130     8.9140    -2.5350 ca         1 IQG      -0.065000
     33 N3          -0.6780     8.4310    -2.6880 nc         1 IQG      -0.593100
     34 C4           0.3210     7.6060    -2.3560 cc         1 IQG      -0.117200
     35 C3'         -0.4450     3.3500    -3.9510 c3         1 IQG       0.148100
     36 C2'         -0.6710     4.8810    -3.9470 c3         1 IQG      -0.113400
     37 O3'         -1.3000     2.7110    -4.9020 oh         1 IQG      -0.572800
     38 H5'2         0.9260     1.7890    -2.1320 h1         1 IQG      -0.016300
     39 H5'1        -0.4420     0.8640    -2.7680 h1         1 IQG      -0.016300
     40 H4'         -1.9140     2.8730    -2.4130 h1         1 IQG       0.026700
     41 H1'         -1.5860     5.6710    -2.1530 h2         1 IQG       0.029700
     42 H8           2.1160     4.9880    -1.6620 h5         1 IQG       0.057100
     43 H1           0.8040    11.2990    -2.4720 hn         1 IQG       0.166500
     44 H2          -1.4210    11.5300    -3.1590 hn         1 IQG       0.284800
     45 H20         -3.7410    12.9620    -6.4740 h4         1 IQG      -0.037900
     46 H19         -5.9910    12.0570    -6.8960 ha         1 IQG       0.100000
     47 H18         -6.8000    10.1210    -5.5950 ha         1 IQG       0.118000
     48 H14         -7.1040     5.5380    -1.6140 hn         1 IQG       0.273300
     49 H14'        -8.1830     6.2080    -2.7940 hn         1 IQG       0.273300
     50 H13         -4.3910     5.4300    -1.4030 h1         1 IQG       0.029033
     51 H13'        -3.6470     6.8500    -0.6540 h1         1 IQG       0.029033
     52 H12         -5.2890     6.3690    -0.2030 h1         1 IQG       0.029033
     53 H11         -2.5320     8.5070    -1.7980 ha         1 IQG       0.143000
     54 H3'          0.5960     3.1170    -4.1410 h1         1 IQG       0.020700
     55 H2'1         0.1230     5.3810    -4.4890 hc         1 IQG       0.029200
     56 H2'2        -1.6380     5.1220    -4.3710 hc         1 IQG       0.029200
     57 H3          -0.8050     2.4960    -5.6750 ho         1 IQG       0.377000
     58 OP3         -0.5370    -1.3200    -0.7490 o          1 IQG      -0.712167
@<TRIPOS>BOND
     1     1     2 1   
     2     1     3 1   
     3     1     4 1   
     4     1    58 1   
     5     4     5 1   
     6     5     6 1   
     7     5    38 1   
     8     5    39 1   
     9     6     7 1   
    10     6    35 1   
    11     6    40 1   
    12     7     8 1   
    13     8     9 1   
    14     8    36 1   
    15     8    41 1   
    16     9    10 1   
    17     9    34 1   
    18    10    11 2   
    19    10    42 1   
    20    11    12 1   
    21    12    13 1   
    22    12    34 2   
    23    13    14 2   
    24    13    15 1   
    25    15    16 1   
    26    15    43 1   
    27    16    17 1   
    28    16    33 2   
    29    17    18 1   
    30    17    44 1   
    31    18    19 ar  
    32    18    32 ar  
    33    19    20 ar  
    34    19    24 ar  
    35    20    21 ar  
    36    21    22 ar  
    37    21    45 1   
    38    22    23 ar  
    39    22    46 1   
    40    23    24 ar  
    41    23    47 1   
    42    24    25 ar  
    43    25    26 1   
    44    25    31 ar  
    45    26    27 2   
    46    27    28 1   
    47    27    29 1   
    48    28    48 1   
    49    28    49 1   
    50    29    30 1   
    51    29    31 1   
    52    30    50 1   
    53    30    51 1   
    54    30    52 1   
    55    31    32 ar  
    56    32    53 1   
    57    33    34 1   
    58    35    36 1   
    59    35    37 1   
    60    35    54 1   
    61    36    55 1   
    62    36    56 1   
    63    37    57 1   
@<TRIPOS>SUBSTRUCTURE
     1 IQG         1 TEMP              0 ****  ****    0 ROOT
