@<TRIPOS>MOLECULE
molecule
   58    63     1     0     0
SMALL
bcc


@<TRIPOS>ATOM
      1 P            0.0000     0.0000     0.0000 p5         1 IQG       1.167900
      2 OP1          1.4800     0.0000     0.0000 o          1 IQG      -0.902833
      3 OP2         -0.5370     0.0000     1.5180 o          1 IQG      -0.902833
      4 O5'         -0.5370     1.3140    -0.7590 os         1 IQG      -0.565200
      5 C5'         -0.1490     1.6570    -2.0910 c3         1 IQG       0.228400
      6 C4'         -0.8380     2.9590    -2.5030 c3         1 IQG       0.131100
      7 O4'         -0.3520     4.0650    -1.7130 os         1 IQG      -0.371600
      8 C1'         -0.6280     5.2650    -2.4550 c3         1 IQG       0.242800
      9 N9           0.4330     6.2480    -2.2240 na         1 IQG      -0.174900
     10 C8           1.7160     5.9780    -1.8440 cc         1 IQG       0.460400
     11 N7           2.3860     7.0870    -1.7320 nd         1 IQG      -0.653000
     12 C5           1.5770     8.1320    -2.0330 cd         1 IQG       0.182800
     13 C6           1.7560     9.5350    -2.0800 c          1 IQG       0.641000
     14 O6           2.8350    10.0360    -1.8110 o          1 IQG      -0.635500
     15 N1           0.7020    10.3050    -2.4300 ns         1 IQG      -0.486400
     16 C2          -0.5000     9.7330    -2.7280 cd         1 IQG       0.707800
     17 N2          -1.5530    10.5410    -3.0810 nu         1 IQG      -0.718600
     18 C23         -2.8220     9.9860    -3.2810 ca         1 IQG       0.084300
     19 C22         -3.6800    10.5430    -4.2570 ca         1 IQG       0.414600
     20 N21         -3.2970    11.5900    -4.9920 nb         1 IQG      -0.699000
     21 C20         -4.0880    12.1130    -5.8980 ca         1 IQG       0.416200
     22 C19         -5.3600    11.6050    -6.1400 ca         1 IQG      -0.278300
     23 C18         -5.8130    10.5310    -5.4220 ca         1 IQG      -0.058000
     24 C17         -4.9640     9.9790    -4.4540 ca         1 IQG      -0.098300
     25 C16         -5.3670     8.8350    -3.6430 ca         1 IQG       0.113400
     26 N15         -6.4930     8.0840    -3.5760 nd         1 IQG      -0.675100
     27 C14         -6.3490     7.1610    -2.6570 cc         1 IQG       0.666700
     28 N14         -7.3010     6.2180    -2.3210 nv         1 IQG      -0.967800
     29 N13         -5.1170     7.2720    -2.0830 na         1 IQG      -0.156300
     30 C13         -4.5760     6.4250    -1.0160 c3         1 IQG       0.029600
     31 C12         -4.4710     8.3330    -2.6950 ca         1 IQG      -0.106200
     32 C11         -3.2130     8.9140    -2.5350 ca         1 IQG      -0.074000
     33 N3          -0.6780     8.4310    -2.6880 nc         1 IQG      -0.707100
     34 C4           0.3210     7.6060    -2.3560 cc         1 IQG       0.094800
     35 C3'         -0.4450     3.3500    -3.9510 c3         1 IQG       0.102100
     36 C2'         -0.6710     4.8810    -3.9470 c3         1 IQG      -0.160400
     37 O3'         -1.3000     2.7110    -4.9020 oh         1 IQG      -0.592800
     38 H5'2         0.9260     1.7890    -2.1320 h1         1 IQG       0.028200
     39 H5'1        -0.4420     0.8640    -2.7680 h1         1 IQG       0.028200
     40 H4'         -1.9140     2.8730    -2.4130 h1         1 IQG       0.065700
     41 H1'         -1.5860     5.6710    -2.1530 h2         1 IQG       0.064700
     42 H8           2.1160     4.9880    -1.6620 h5         1 IQG       0.108100
     43 H1           0.8040    11.2990    -2.4720 hn         1 IQG       0.323500
     44 H2          -1.4210    11.5300    -3.1590 hn         1 IQG       0.461800
     45 H20         -3.7410    12.9620    -6.4740 h4         1 IQG       0.010100
     46 H19         -5.9910    12.0570    -6.8960 ha         1 IQG       0.127000
     47 H18         -6.8000    10.1210    -5.5950 ha         1 IQG       0.152000
     48 H14         -7.1040     5.5380    -1.6140 hn         1 IQG       0.451800
     49 H14'        -8.1830     6.2080    -2.7940 hn         1 IQG       0.451800
     50 H13         -4.3910     5.4300    -1.4030 h1         1 IQG       0.063700
     51 H13'        -3.6470     6.8500    -0.6540 h1         1 IQG       0.063700
     52 H12         -5.2890     6.3690    -0.2030 h1         1 IQG       0.063700
     53 H11         -2.5320     8.5070    -1.7980 ha         1 IQG       0.173000
     54 H3'          0.5960     3.1170    -4.1410 h1         1 IQG       0.055700
     55 H2'1         0.1230     5.3810    -4.4890 hc         1 IQG       0.059700
     56 H2'2        -1.6380     5.1220    -4.3710 hc         1 IQG       0.059700
     57 H3          -0.8050     2.4960    -5.6750 ho         1 IQG       0.393000
     58 OP3         -0.5370    -1.3200    -0.7490 o          1 IQG      -0.902833
@<TRIPOS>BOND
     1    28    27 1
     2    27    26 2
     3    27    29 1
     4    30    29 1
     5    37    35 1
     6    26    25 1
     7     2     1 1
     8    29    31 1
     9    35     6 1
    10    35    36 1
    11     5     6 1
    12     5     4 1
    13     6     7 1
    14     4     1 1
    15    25    31 ar
    16    25    24 ar
    17     1     3 1
    18    31    32 ar
    19    36     8 1
    20    23    24 ar
    21    23    22 ar
    22     7     8 1
    23    24    19 ar
    24    32    18 ar
    25     8     9 1
    26    22    21 ar
    27    19    18 ar
    28    19    20 ar
    29    18    17 1
    30     9    34 1
    31     9    10 1
    32    33    34 1
    33    33    16 2
    34    21    20 ar
    35    34    12 2
    36    17    16 1
    37    10    11 2
    38    16    15 1
    39    12    11 1
    40    12    13 1
    41    15    13 1
    42    13    14 2
    43     5    38 1
    44     5    39 1
    45     6    40 1
    46     8    41 1
    47    10    42 1
    48    15    43 1
    49    17    44 1
    50    21    45 1
    51    22    46 1
    52    23    47 1
    53    28    48 1
    54    28    49 1
    55    30    50 1
    56    30    51 1
    57    30    52 1
    58    32    53 1
    59    35    54 1
    60    36    55 1
    61    36    56 1
    62    37    57 1
    63     1    58 1
@<TRIPOS>SUBSTRUCTURE
     1 IQG         1 TEMP              0 ****  ****    0 ROOT
