@<TRIPOS>MOLECULE
molecule
   56    59     1     0     0
SMALL
bcc


@<TRIPOS>ATOM
      1 C1           0.0000     0.0000     0.0000 c3         1 IQK       0.125700
      2 N1           4.3260     1.5800     5.6830 nu         1 IQK      -0.762500
      3 O1           1.4300     0.0000     0.0000 os         1 IQK      -0.322900
      4 S1           4.1030    -0.0020     5.2450 sy         1 IQK       1.427700
      5 C2           2.0460     0.0000     1.2110 ca         1 IQK       0.197100
      6 N2          -0.1290     4.9200     6.2830 nu         1 IQK      -0.762500
      7 O2           1.8080     5.1110    12.5590 os         1 IQK      -0.322900
      8 S2          -1.1960     4.6380     7.5180 sy         1 IQK       1.427700
      9 C3           3.4320     0.0000     1.2840 ca         1 IQK      -0.213000
     10 O3          -2.1230     5.7160     7.5000 o          1 IQK      -0.635550
     11 C4           4.0570    -0.0010     2.5170 ca         1 IQK       0.013250
     12 O4          -1.5860     3.2760     7.4090 o          1 IQK      -0.635550
     13 C5           3.3030    -0.0020     3.6750 ca         1 IQK      -0.356000
     14 O5           5.3990    -0.5460     5.0340 o          1 IQK      -0.635550
     15 C6           3.2230     2.4270     5.8280 ca         1 IQK       0.142100
     16 O6           3.1720    -0.5470     6.1700 o          1 IQK      -0.635550
     17 C7           3.3410     3.8000     5.5300 ca         1 IQK      -0.034500
     18 C8           4.5560     4.3460     5.0850 ca         1 IQK      -0.115000
     19 C9           4.6350     5.6760     4.8060 ca         1 IQK      -0.120000
     20 C10          3.5260     6.5070     4.9560 ca         1 IQK      -0.120000
     21 C11          2.3330     6.0130     5.3860 ca         1 IQK      -0.115000
     22 C12          2.2140     4.6450     5.6820 ca         1 IQK      -0.034500
     23 C13          0.9920     4.0990     6.1280 ca         1 IQK       0.142100
     24 C14         -0.2970     4.7790     9.0270 ca         1 IQK      -0.356000
     25 C15         -0.2020     6.0050     9.6620 ca         1 IQK       0.013250
     26 C16          0.5030     6.1170    10.8440 ca         1 IQK      -0.213000
     27 C17          1.1150     5.0020    11.3960 ca         1 IQK       0.197100
     28 C18          2.4130     3.9200    13.0680 c3         1 IQK       0.125700
     29 C19          1.0170     3.7740    10.7570 ca         1 IQK      -0.213000
     30 C20          0.3080     3.6650     9.5770 ca         1 IQK       0.013250
     31 C21          0.9090     2.7530     6.4110 ca         1 IQK      -0.166000
     32 C22          2.0150     1.9220     6.2560 ca         1 IQK      -0.166000
     33 C23          1.9230    -0.0020     3.6050 ca         1 IQK       0.013250
     34 C24          1.2920     0.0050     2.3750 ca         1 IQK      -0.213000
     35 H1          -0.3610    -0.8840     0.5120 h1         1 IQK       0.046700
     36 H1A         -0.3610    -0.0020    -1.0210 h1         1 IQK       0.046700
     37 H1B         -0.3610     0.8850     0.5090 h1         1 IQK       0.046700
     38 HN1          5.2450     1.9160     5.8940 hn         1 IQK       0.464800
     39 HN2         -0.2680     5.6980     5.6700 hn         1 IQK       0.464800
     40 H3           4.0230     0.0010     0.3770 ha         1 IQK       0.147250
     41 H4           5.1380    -0.0000     2.5750 ha         1 IQK       0.153250
     42 H8           5.4260     3.7120     4.9630 ha         1 IQK       0.130500
     43 H9           5.5730     6.0950     4.4620 ha         1 IQK       0.132000
     44 H10          3.6150     7.5620     4.7270 ha         1 IQK       0.132000
     45 H11          1.4800     6.6700     5.4990 ha         1 IQK       0.130500
     46 H15         -0.6800     6.8760     9.2310 ha         1 IQK       0.153250
     47 H16          0.5770     7.0770    11.3410 ha         1 IQK       0.147250
     48 H18          3.1190     3.5350    12.3430 h1         1 IQK       0.046700
     49 H18A         1.6470     3.1770    13.2560 h1         1 IQK       0.046700
     50 H18B         2.9320     4.1450    13.9920 h1         1 IQK       0.046700
     51 H19          1.4910     2.9000    11.1880 ha         1 IQK       0.147250
     52 H20          0.2310     2.7060     9.0780 ha         1 IQK       0.153250
     53 H21         -0.0310     2.3350     6.7490 ha         1 IQK       0.187500
     54 H22          1.9270     0.8670     6.4840 ha         1 IQK       0.187500
     55 H23          1.3350     0.0020     4.5140 ha         1 IQK       0.153250
     56 H24          0.2100     0.0040     2.3210 ha         1 IQK       0.147250
@<TRIPOS>BOND
     1     1     3 1
     2     2     4 1
     3     2    15 1
     4     3     5 1
     5     4    13 1
     6     4    14 2
     7     4    16 2
     8     5     9 ar
     9     5    34 ar
    10     6     8 1
    11     6    23 1
    12     7    27 1
    13     7    28 1
    14     8    10 2
    15     8    12 2
    16     8    24 1
    17     9    11 ar
    18    11    13 ar
    19    13    33 ar
    20    15    17 ar
    21    15    32 ar
    22    17    18 ar
    23    17    22 ar
    24    18    19 ar
    25    19    20 ar
    26    20    21 ar
    27    21    22 ar
    28    22    23 ar
    29    23    31 ar
    30    24    25 ar
    31    24    30 ar
    32    25    26 ar
    33    26    27 ar
    34    27    29 ar
    35    29    30 ar
    36    31    32 ar
    37    33    34 ar
    38     1    35 1
    39     1    36 1
    40     1    37 1
    41     2    38 1
    42     6    39 1
    43     9    40 1
    44    11    41 1
    45    18    42 1
    46    19    43 1
    47    20    44 1
    48    21    45 1
    49    25    46 1
    50    26    47 1
    51    28    48 1
    52    28    49 1
    53    28    50 1
    54    29    51 1
    55    30    52 1
    56    31    53 1
    57    32    54 1
    58    33    55 1
    59    34    56 1
@<TRIPOS>SUBSTRUCTURE
     1 IQK         1 TEMP              0 ****  ****    0 ROOT
