@<TRIPOS>MOLECULE
IQK
   56    59     1     0     0
SMALL
bcc


@<TRIPOS>ATOM
      1 C1           0.0000     0.0000     0.0000 c3         1 IQK       0.245700
      2 N1           4.3260     1.5800     5.6830 nu         1 IQK      -0.387500
      3 O1           1.4300     0.0000     0.0000 os         1 IQK      -0.305900
      4 S1           4.1030    -0.0020     5.2450 sy         1 IQK       1.044200
      5 C2           2.0460     0.0000     1.2110 ca         1 IQK       0.205600
      6 N2          -0.1290     4.9200     6.2830 nu         1 IQK      -0.387500
      7 O2           1.8080     5.1110    12.5590 os         1 IQK      -0.305900
      8 S2          -1.1960     4.6380     7.5180 sy         1 IQK       1.044200
      9 C3           3.4320     0.0000     1.2840 ca         1 IQK      -0.208500
     10 O3          -2.1230     5.7160     7.5000 o          1 IQK      -0.588300
     11 C4           4.0570    -0.0010     2.5170 ca         1 IQK       0.049500
     12 O4          -1.5860     3.2760     7.4090 o          1 IQK      -0.588300
     13 C5           3.3030    -0.0020     3.6750 ca         1 IQK      -0.206500
     14 O5           5.3990    -0.5460     5.0340 o          1 IQK      -0.588300
     15 C6           3.2230     2.4270     5.8280 ca         1 IQK       0.054600
     16 O6           3.1720    -0.5470     6.1700 o          1 IQK      -0.588300
     17 C7           3.3410     3.8000     5.5300 ca         1 IQK      -0.038000
     18 C8           4.5560     4.3460     5.0850 ca         1 IQK      -0.094000
     19 C9           4.6350     5.6760     4.8060 ca         1 IQK      -0.095000
     20 C10          3.5260     6.5070     4.9560 ca         1 IQK      -0.095000
     21 C11          2.3330     6.0130     5.3860 ca         1 IQK      -0.094000
     22 C12          2.2140     4.6450     5.6820 ca         1 IQK      -0.038000
     23 C13          0.9920     4.0990     6.1280 ca         1 IQK       0.054600
     24 C14         -0.2970     4.7790     9.0270 ca         1 IQK      -0.206500
     25 C15         -0.2020     6.0050     9.6620 ca         1 IQK       0.049500
     26 C16          0.5030     6.1170    10.8440 ca         1 IQK      -0.208500
     27 C17          1.1150     5.0020    11.3960 ca         1 IQK       0.205600
     28 C18          2.4130     3.9200    13.0680 c3         1 IQK       0.245700
     29 C19          1.0170     3.7740    10.7570 ca         1 IQK      -0.208500
     30 C20          0.3080     3.6650     9.5770 ca         1 IQK       0.049500
     31 C21          0.9090     2.7530     6.4110 ca         1 IQK      -0.160500
     32 C22          2.0150     1.9220     6.2560 ca         1 IQK      -0.160500
     33 C23          1.9230    -0.0020     3.6050 ca         1 IQK       0.049500
     34 C24          1.2920     0.0050     2.3750 ca         1 IQK      -0.208500
     35 H1          -0.3610    -0.8840     0.5120 h1         1 IQK       0.000700
     36 H1A         -0.3610    -0.0020    -1.0210 h1         1 IQK       0.000700
     37 H1B         -0.3610     0.8850     0.5090 h1         1 IQK       0.000700
     38 HN1          5.2450     1.9160     5.8940 hn         1 IQK       0.347800
     39 HN2         -0.2680     5.6980     5.6700 hn         1 IQK       0.347800
     40 H3           4.0230     0.0010     0.3770 ha         1 IQK       0.125750
     41 H4           5.1380    -0.0000     2.5750 ha         1 IQK       0.123250
     42 H8           5.4260     3.7120     4.9630 ha         1 IQK       0.105500
     43 H9           5.5730     6.0950     4.4620 ha         1 IQK       0.102000
     44 H10          3.6150     7.5620     4.7270 ha         1 IQK       0.102000
     45 H11          1.4800     6.6700     5.4990 ha         1 IQK       0.105500
     46 H15         -0.6800     6.8760     9.2310 ha         1 IQK       0.123250
     47 H16          0.5770     7.0770    11.3410 ha         1 IQK       0.125750
     48 H18          3.1190     3.5350    12.3430 h1         1 IQK       0.000700
     49 H18A         1.6470     3.1770    13.2560 h1         1 IQK       0.000700
     50 H18B         2.9320     4.1450    13.9920 h1         1 IQK       0.000700
     51 H19          1.4910     2.9000    11.1880 ha         1 IQK       0.125750
     52 H20          0.2310     2.7060     9.0780 ha         1 IQK       0.123250
     53 H21         -0.0310     2.3350     6.7490 ha         1 IQK       0.176000
     54 H22          1.9270     0.8670     6.4840 ha         1 IQK       0.176000
     55 H23          1.3350     0.0020     4.5140 ha         1 IQK       0.123250
     56 H24          0.2100     0.0040     2.3210 ha         1 IQK       0.125750
@<TRIPOS>BOND
     1     1     3 1   
     2     1    35 1   
     3     1    36 1   
     4     1    37 1   
     5     2     4 1   
     6     2    15 1   
     7     2    38 1   
     8     3     5 1   
     9     4    13 1   
    10     4    14 2   
    11     4    16 2   
    12     5     9 ar  
    13     5    34 ar  
    14     6     8 1   
    15     6    23 1   
    16     6    39 1   
    17     7    27 1   
    18     7    28 1   
    19     8    10 2   
    20     8    12 2   
    21     8    24 1   
    22     9    11 ar  
    23     9    40 1   
    24    11    13 ar  
    25    11    41 1   
    26    13    33 ar  
    27    15    17 ar  
    28    15    32 ar  
    29    17    18 ar  
    30    17    22 ar  
    31    18    19 ar  
    32    18    42 1   
    33    19    20 ar  
    34    19    43 1   
    35    20    21 ar  
    36    20    44 1   
    37    21    22 ar  
    38    21    45 1   
    39    22    23 ar  
    40    23    31 ar  
    41    24    25 ar  
    42    24    30 ar  
    43    25    26 ar  
    44    25    46 1   
    45    26    27 ar  
    46    26    47 1   
    47    27    29 ar  
    48    28    48 1   
    49    28    49 1   
    50    28    50 1   
    51    29    30 ar  
    52    29    51 1   
    53    30    52 1   
    54    31    32 ar  
    55    31    53 1   
    56    32    54 1   
    57    33    34 ar  
    58    33    55 1   
    59    34    56 1   
@<TRIPOS>SUBSTRUCTURE
     1 IQK         1 TEMP              0 ****  ****    0 ROOT
