@<TRIPOS>MOLECULE
IQO
   71    78     1     0     0
SMALL
bcc


@<TRIPOS>ATOM
      1 C4           0.0000     0.0000     0.0000 ca         1 IQO      -0.145400
      2 C6           2.0860     0.0000     1.2020 ca         1 IQO      -0.082000
      3 C7           1.3900    -0.0000     2.3960 ca         1 IQO      -0.099000
      4 C8           0.0050     0.0080     2.3950 ca         1 IQO      -0.097000
      5 C13         -1.7880     0.0020    -1.8110 c3         1 IQO       0.035700
      6 C15         -3.4640    -1.2050    -3.2130 c3         1 IQO       0.153800
      7 C17         -5.0280     1.1350    -5.6720 ca         1 IQO      -0.081300
      8 C20         -5.1320     3.2040    -7.5100 cp         1 IQO      -0.156500
      9 C21         -4.6900     1.9400    -7.9020 ca         1 IQO      -0.076000
     10 C22         -4.6360     0.9150    -6.9800 ca         1 IQO      -0.098000
     11 C24         -4.0740     4.5300    -9.4060 cq         1 IQO       0.340500
     12 C28         -7.4310     6.9290    -9.4990 ca         1 IQO      -0.132300
     13 C1           0.6980     0.0020    -2.1090 c          1 IQO       0.570500
     14 N2           1.7980     0.0020    -1.3340 ns         1 IQO       0.018900
     15 C3           1.3950     0.0000     0.0000 ca         1 IQO      -0.166400
     16 N5          -0.4030     0.0010    -1.3330 n          1 IQO       0.056000
     17 C9          -0.6910     0.0040     1.2020 ca         1 IQO      -0.087000
     18 O10          0.6980     0.0040    -3.3260 o          1 IQO      -0.717500
     19 C11         -3.4660     1.2180    -3.2050 c3         1 IQO       0.153800
     20 C12         -2.0360     1.2530    -2.6600 c3         1 IQO      -0.053900
     21 C14         -2.0340    -1.2430    -2.6680 c3         1 IQO      -0.053900
     22 C18         -5.4730     2.3840    -5.2790 ca         1 IQO      -0.098000
     23 C19         -5.5270     3.4190    -6.1900 ca         1 IQO      -0.076000
     24 N23         -4.1170     5.5110   -10.2880 nb         1 IQO      -0.521000
     25 C25         -5.1930     4.3100    -8.4930 cp         1 IQO       0.350500
     26 N26         -6.2570     5.0890    -8.5400 nb         1 IQO      -0.538000
     27 C27         -6.3130     6.0860    -9.4300 ca         1 IQO       0.268300
     28 C29         -7.4630     7.9490   -10.4220 ca         1 IQO      -0.243200
     29 C30         -6.3840     8.1680   -11.3090 ca         1 IQO       0.071400
     30 C31         -5.2590     7.3550   -11.2720 ca         1 IQO      -0.066300
     31 C32         -5.1900     6.3090   -10.3450 ca         1 IQO       0.238300
     32 C33         -7.8970     9.6710   -11.7420 cc         1 IQO       0.276700
     33 N34         -8.4030     8.9200   -10.7260 na         1 IQO       0.222700
     34 N35         -6.7210     9.2350   -12.0840 nd         1 IQO      -0.527100
     35 C36         -2.8890     3.6440    -9.3470 cq         1 IQO      -0.160500
     36 C37         -2.3290     3.1440   -10.5220 ca         1 IQO      -0.078500
     37 C38         -1.2240     2.3200   -10.4600 ca         1 IQO      -0.106500
     38 C39         -0.6740     1.9880    -9.2360 ca         1 IQO      -0.090000
     39 C40         -1.2250     2.4800    -8.0670 ca         1 IQO      -0.106500
     40 C41         -2.3260     3.3100    -8.1150 ca         1 IQO      -0.078500
     41 N42         -3.6510     0.0090    -4.0180 n3         1 IQO      -0.528600
     42 H6           3.1700    -0.0070     1.2060 ha         1 IQO       0.106000
     43 H7           1.9290     0.0030     3.3350 ha         1 IQO       0.106000
     44 H8          -0.5340     0.0080     3.3340 ha         1 IQO       0.106000
     45 H13         -2.4670    -0.0010    -0.9670 h1         1 IQO       0.035700
     46 H15         -4.1640    -1.2000    -2.3860 h1         1 IQO       0.011700
     47 H15A        -3.6360    -2.0770    -3.8320 h1         1 IQO       0.011700
     48 H21         -4.3820     1.7670    -8.9260 ha         1 IQO       0.117000
     49 H22         -4.2920    -0.0660    -7.2840 ha         1 IQO       0.109500
     50 HN2          2.7450     0.0020    -1.6590 hn         1 IQO       0.190500
     51 H9          -1.7740     0.0110     1.2060 ha         1 IQO       0.107000
     52 H11         -3.6380     2.0940    -3.8190 h1         1 IQO       0.011700
     53 H11A        -4.1660     1.2060    -2.3790 h1         1 IQO       0.011700
     54 H12         -1.9060     2.1370    -2.0460 hc         1 IQO       0.042450
     55 H12A        -1.3350     1.2730    -3.4860 hc         1 IQO       0.042450
     56 H14         -1.9030    -2.1300    -2.0610 hc         1 IQO       0.042450
     57 H14A        -1.3340    -1.2570    -3.4940 hc         1 IQO       0.042450
     58 H18         -5.7790     2.5510    -4.2530 ha         1 IQO       0.109500
     59 H19         -5.8730     4.3970    -5.8790 ha         1 IQO       0.117000
     60 H31         -4.3980     7.5930   -11.8850 ha         1 IQO       0.128000
     61 H33         -8.4020    10.5120   -12.2010 h5         1 IQO       0.025800
     62 HN34        -9.2900     9.0460   -10.2800 hn         1 IQO       0.133700
     63 H37         -2.7600     3.4040   -11.4820 ha         1 IQO       0.115500
     64 H38         -0.7880     1.9310   -11.3720 ha         1 IQO       0.108000
     65 H39          0.1920     1.3380    -9.1920 ha         1 IQO       0.103000
     66 H40         -0.7870     2.2180    -7.1110 ha         1 IQO       0.108000
     67 H41         -2.7570     3.6950    -7.1990 ha         1 IQO       0.115500
     68 C16         -4.9660     0.0100    -4.6710 c3         1 IQO       0.210100
     69 H28         -8.3010     6.7250    -8.8870 ha         1 IQO       0.117000
     70 H16         -5.1180    -0.9350    -5.1790 h1         1 IQO       0.012200
     71 H16A        -5.7400     0.1470    -3.9250 h1         1 IQO       0.012200
@<TRIPOS>BOND
     1     1    15 ar  
     2     1    16 1   
     3     1    17 ar  
     4     2     3 ar  
     5     2    15 ar  
     6     2    42 1   
     7     3     4 ar  
     8     3    43 1   
     9     4    17 ar  
    10     4    44 1   
    11     5    16 1   
    12     5    20 1   
    13     5    21 1   
    14     5    45 1   
    15     6    21 1   
    16     6    41 1   
    17     6    46 1   
    18     6    47 1   
    19     7    10 ar  
    20     7    22 ar  
    21     7    68 1   
    22     8     9 ar  
    23     8    23 ar  
    24     8    25 1   
    25     9    10 ar  
    26     9    48 1   
    27    10    49 1   
    28    11    24 1   
    29    11    25 2   
    30    11    35 1   
    31    12    27 ar  
    32    12    28 ar  
    33    12    69 1   
    34    13    14 1   
    35    13    16 1   
    36    13    18 2   
    37    14    15 1   
    38    14    50 1   
    39    17    51 1   
    40    19    20 1   
    41    19    41 1   
    42    19    52 1   
    43    19    53 1   
    44    20    54 1   
    45    20    55 1   
    46    21    56 1   
    47    21    57 1   
    48    22    23 ar  
    49    22    58 1   
    50    23    59 1   
    51    24    31 ar  
    52    25    26 ar  
    53    26    27 ar  
    54    27    31 ar  
    55    28    29 ar  
    56    28    33 1   
    57    29    30 ar  
    58    29    34 1   
    59    30    31 ar  
    60    30    60 1   
    61    32    33 1   
    62    32    34 2   
    63    32    61 1   
    64    33    62 1   
    65    35    36 1   
    66    35    40 2   
    67    36    37 ar  
    68    36    63 1   
    69    37    38 ar  
    70    37    64 1   
    71    38    39 ar  
    72    38    65 1   
    73    39    40 ar  
    74    39    66 1   
    75    40    67 1   
    76    41    68 1   
    77    68    70 1   
    78    68    71 1   
@<TRIPOS>SUBSTRUCTURE
     1 IQO         1 TEMP              0 ****  ****    0 ROOT
