@<TRIPOS>MOLECULE
molecule
   71    78     1     0     0
SMALL
bcc


@<TRIPOS>ATOM
      1 C4           0.0000     0.0000     0.0000 ca         1 IQO       0.000600
      2 C6           2.0860     0.0000     1.2020 ca         1 IQO      -0.124000
      3 C7           1.3900    -0.0000     2.3960 ca         1 IQO      -0.127000
      4 C8           0.0050     0.0080     2.3950 ca         1 IQO      -0.125000
      5 C13         -1.7880     0.0020    -1.8110 c3         1 IQO       0.141700
      6 C15         -3.4640    -1.2050    -3.2130 c3         1 IQO       0.164300
      7 C17         -5.0280     1.1350    -5.6720 ca         1 IQO      -0.069300
      8 C20         -5.1320     3.2040    -7.5100 cp         1 IQO      -0.152500
      9 C21         -4.6900     1.9400    -7.9020 ca         1 IQO      -0.096000
     10 C22         -4.6360     0.9150    -6.9800 ca         1 IQO      -0.125500
     11 C24         -4.0740     4.5300    -9.4060 cq         1 IQO       0.379500
     12 C28         -7.4310     6.9290    -9.4990 ca         1 IQO      -0.173300
     13 C1           0.6980     0.0020    -2.1090 c          1 IQO       0.801500
     14 N2           1.7980     0.0020    -1.3340 ns         1 IQO      -0.449100
     15 C3           1.3950     0.0000     0.0000 ca         1 IQO      -0.008400
     16 N5          -0.4030     0.0010    -1.3330 n          1 IQO      -0.356000
     17 C9          -0.6910     0.0040     1.2020 ca         1 IQO      -0.126000
     18 O10          0.6980     0.0040    -3.3260 o          1 IQO      -0.662500
     19 C11         -3.4660     1.2180    -3.2050 c3         1 IQO       0.164300
     20 C12         -2.0360     1.2530    -2.6600 c3         1 IQO      -0.098400
     21 C14         -2.0340    -1.2430    -2.6680 c3         1 IQO      -0.098400
     22 C18         -5.4730     2.3840    -5.2790 ca         1 IQO      -0.125500
     23 C19         -5.5270     3.4190    -6.1900 ca         1 IQO      -0.096000
     24 N23         -4.1170     5.5110   -10.2880 nb         1 IQO      -0.632000
     25 C25         -5.1930     4.3100    -8.4930 cp         1 IQO       0.388500
     26 N26         -6.2570     5.0890    -8.5400 nb         1 IQO      -0.646000
     27 C27         -6.3130     6.0860    -9.4300 ca         1 IQO       0.312300
     28 C29         -7.4630     7.9490   -10.4220 ca         1 IQO      -0.068200
     29 C30         -6.3840     8.1680   -11.3090 ca         1 IQO       0.102400
     30 C31         -5.2590     7.3550   -11.2720 ca         1 IQO      -0.099300
     31 C32         -5.1900     6.3090   -10.3450 ca         1 IQO       0.281300
     32 C33         -7.8970     9.6710   -11.7420 cc         1 IQO       0.454700
     33 N34         -8.4030     8.9200   -10.7260 na         1 IQO      -0.291300
     34 N35         -6.7210     9.2350   -12.0840 nd         1 IQO      -0.608100
     35 C36         -2.8890     3.6440    -9.3470 cq         1 IQO      -0.157500
     36 C37         -2.3290     3.1440   -10.5220 ca         1 IQO      -0.097000
     37 C38         -1.2240     2.3200   -10.4600 ca         1 IQO      -0.134500
     38 C39         -0.6740     1.9880    -9.2360 ca         1 IQO      -0.115000
     39 C40         -1.2250     2.4800    -8.0670 ca         1 IQO      -0.134500
     40 C41         -2.3260     3.3100    -8.1150 ca         1 IQO      -0.097000
     41 N42         -3.6510     0.0090    -4.0180 n3         1 IQO      -0.720600
     42 H6           3.1700    -0.0070     1.2060 ha         1 IQO       0.135000
     43 H7           1.9290     0.0030     3.3350 ha         1 IQO       0.136000
     44 H8          -0.5340     0.0080     3.3340 ha         1 IQO       0.136000
     45 H13         -2.4670    -0.0010    -0.9670 h1         1 IQO       0.060700
     46 H15         -4.1640    -1.2000    -2.3860 h1         1 IQO       0.036200
     47 H15A        -3.6360    -2.0770    -3.8320 h1         1 IQO       0.036200
     48 H21         -4.3820     1.7670    -8.9260 ha         1 IQO       0.144500
     49 H22         -4.2920    -0.0660    -7.2840 ha         1 IQO       0.135000
     50 HN2          2.7450     0.0020    -1.6590 hn         1 IQO       0.360500
     51 H9          -1.7740     0.0110     1.2060 ha         1 IQO       0.134000
     52 H11         -3.6380     2.0940    -3.8190 h1         1 IQO       0.036200
     53 H11A        -4.1660     1.2060    -2.3790 h1         1 IQO       0.036200
     54 H12         -1.9060     2.1370    -2.0460 hc         1 IQO       0.070450
     55 H12A        -1.3350     1.2730    -3.4860 hc         1 IQO       0.070450
     56 H14         -1.9030    -2.1300    -2.0610 hc         1 IQO       0.070450
     57 H14A        -1.3340    -1.2570    -3.4940 hc         1 IQO       0.070450
     58 H18         -5.7790     2.5510    -4.2530 ha         1 IQO       0.135000
     59 H19         -5.8730     4.3970    -5.8790 ha         1 IQO       0.144500
     60 H31         -4.3980     7.5930   -11.8850 ha         1 IQO       0.165000
     61 H33         -8.4020    10.5120   -12.2010 h5         1 IQO       0.075800
     62 HN34        -9.2900     9.0460   -10.2800 hn         1 IQO       0.306700
     63 H37         -2.7600     3.4040   -11.4820 ha         1 IQO       0.142000
     64 H38         -0.7880     1.9310   -11.3720 ha         1 IQO       0.137000
     65 H39          0.1920     1.3380    -9.1920 ha         1 IQO       0.132000
     66 H40         -0.7870     2.2180    -7.1110 ha         1 IQO       0.137000
     67 H41         -2.7570     3.6950    -7.1990 ha         1 IQO       0.142000
     68 C16         -4.9660     0.0100    -4.6710 c3         1 IQO       0.207100
     69 H28         -8.3010     6.7250    -8.8870 ha         1 IQO       0.147000
     70 H16         -5.1180    -0.9350    -5.1790 h1         1 IQO       0.040200
     71 H16A        -5.7400     0.1470    -3.9250 h1         1 IQO       0.040200
@<TRIPOS>BOND
     1     1    15 ar
     2     1    16 1
     3     1    17 ar
     4     2     3 ar
     5     2    15 ar
     6     3     4 ar
     7     4    17 ar
     8     5    16 1
     9     5    20 1
    10     5    21 1
    11     6    21 1
    12     6    41 1
    13     7    10 ar
    14     7    68 1
    15     7    22 ar
    16     8     9 ar
    17     8    23 ar
    18     8    25 1
    19     9    10 ar
    20    11    24 1
    21    11    25 2
    22    11    35 1
    23    12    27 ar
    24    12    28 ar
    25    13    14 1
    26    13    16 1
    27    13    18 2
    28    14    15 1
    29    19    20 1
    30    19    41 1
    31    68    41 1
    32    22    23 ar
    33    24    31 ar
    34    25    26 ar
    35    26    27 ar
    36    27    31 ar
    37    28    29 ar
    38    28    33 1
    39    29    30 ar
    40    29    34 1
    41    30    31 ar
    42    32    33 1
    43    32    34 2
    44    35    36 1
    45    35    40 2
    46    36    37 ar
    47    37    38 ar
    48    38    39 ar
    49    39    40 ar
    50     2    42 1
    51     3    43 1
    52     4    44 1
    53     5    45 1
    54     6    46 1
    55     6    47 1
    56     9    48 1
    57    10    49 1
    58    12    69 1
    59    14    50 1
    60    17    51 1
    61    19    52 1
    62    19    53 1
    63    20    54 1
    64    20    55 1
    65    21    56 1
    66    21    57 1
    67    68    70 1
    68    68    71 1
    69    22    58 1
    70    23    59 1
    71    30    60 1
    72    32    61 1
    73    33    62 1
    74    36    63 1
    75    37    64 1
    76    38    65 1
    77    39    66 1
    78    40    67 1
@<TRIPOS>SUBSTRUCTURE
     1 IQO         1 TEMP              0 ****  ****    0 ROOT
