@<TRIPOS>MOLECULE
molecule
   37    39     1     0     0
SMALL
bcc


@<TRIPOS>ATOM
      1 C1           0.0000     0.0000     0.0000 ca         1 IQP      -0.313500
      2 C2           1.3630     0.0000     0.0000 ca         1 IQP       0.010000
      3 C3           2.0810     0.0000     1.1940 ca         1 IQP      -0.165000
      4 C4           1.4440    -0.0010     2.3970 ca         1 IQP      -0.042000
      5 C5           0.0420    -0.0010     2.4370 ca         1 IQP      -0.191300
      6 C6          -0.6700    -0.0020     3.6480 ca         1 IQP       0.457200
      7 N7          -1.9830    -0.0030     3.6350 nb         1 IQP      -0.698000
      8 C8          -2.6890    -0.0010     2.5130 ca         1 IQP       0.436200
      9 C9          -2.0940    -0.0010     1.2880 ca         1 IQP      -0.264300
     10 C10         -0.6880     0.0050     1.2210 ca         1 IQP       0.069000
     11 S           -0.8870     0.0000    -1.5210 sy         1 IQP       1.438200
     12 O1          -1.8720    -1.0150    -1.3930 o          1 IQP      -0.641300
     13 O2           0.0980     0.0660    -2.5420 o          1 IQP      -0.641300
     14 N1'         -1.7200     1.4280    -1.6080 n3         1 IQP      -0.819500
     15 C2'         -1.0360     2.6890    -1.9320 c3         1 IQP       0.251500
     16 CM2          0.3840     2.3930    -2.4200 c3         1 IQP      -0.133100
     17 C3'         -1.8240     3.3980    -3.0380 c3         1 IQP       0.140800
     18 N4'         -3.2130     3.5890    -2.6060 n7         1 IQP      -0.800200
     19 C5'         -3.8270     2.2620    -2.5060 c3         1 IQP       0.136800
     20 C6'         -3.1710     1.4770    -1.3650 c3         1 IQP       0.233800
     21 H2           1.8960     0.0010    -0.9430 ha         1 IQP       0.157000
     22 H3           3.1640     0.0000     1.1650 ha         1 IQP       0.139000
     23 H4           2.0150    -0.0010     3.3180 ha         1 IQP       0.138000
     24 H6          -0.1370    -0.0030     4.5910 h4         1 IQP       0.027100
     25 H8          -3.7710    -0.0020     2.5720 h4         1 IQP       0.025100
     26 H9          -2.6910     0.0010     0.3840 ha         1 IQP       0.158000
     27 H2'         -1.0000     3.3180    -1.0510 h1         1 IQP       0.061700
     28 HM21         0.3410     1.7440    -3.2870 hc         1 IQP       0.059700
     29 HM22         0.8750     3.3210    -2.6880 hc         1 IQP       0.059700
     30 HM23         0.9430     1.9040    -1.6310 hc         1 IQP       0.059700
     31 H3'1        -1.8060     2.7930    -3.9360 h1         1 IQP       0.041700
     32 H3'2        -1.3730     4.3630    -3.2370 h1         1 IQP       0.041700
     33 HN4         -3.7030     4.1320    -3.2890 hn         1 IQP       0.355800
     34 H5'1        -3.6840     1.7280    -3.4380 h1         1 IQP       0.040700
     35 H5'2        -4.8860     2.3700    -2.3050 h1         1 IQP       0.040700
     36 H6'1        -3.5700     0.4700    -1.3400 h1         1 IQP       0.065200
     37 H6'2        -3.3650     1.9750    -0.4230 h1         1 IQP       0.065200
@<TRIPOS>BOND
     1     1     2 ar
     2     1    10 ar
     3     1    11 1
     4     2     3 ar
     5     2    21 1
     6     3     4 ar
     7     3    22 1
     8     4     5 ar
     9     4    23 1
    10     5     6 ar
    11     5    10 ar
    12     6     7 ar
    13     6    24 1
    14     7     8 ar
    15     8     9 ar
    16     8    25 1
    17     9    10 ar
    18     9    26 1
    19    11    12 2
    20    11    13 2
    21    11    14 1
    22    14    15 1
    23    14    20 1
    24    15    16 1
    25    15    17 1
    26    15    27 1
    27    16    28 1
    28    16    29 1
    29    16    30 1
    30    17    18 1
    31    17    31 1
    32    17    32 1
    33    18    19 1
    34    18    33 1
    35    19    20 1
    36    19    34 1
    37    19    35 1
    38    20    36 1
    39    20    37 1
@<TRIPOS>SUBSTRUCTURE
     1 IQP         1 TEMP              0 ****  ****    0 ROOT
