@<TRIPOS>MOLECULE
molecule
   25    26     1     0     0
SMALL
bcc


@<TRIPOS>ATOM
      1 C            0.0000     0.0000     0.0000 c          1 IQQ       0.882200
      2 O            1.2150     0.0000     0.0000 o          1 IQQ      -0.836300
      3 C1          -0.7400     0.0000     1.2780 ca         1 IQQ      -0.106600
      4 C10         -2.1430     0.0010     3.6750 ca         1 IQQ      -0.136000
      5 C11         -2.8270     0.0060     2.4750 ca         1 IQQ      -0.166000
      6 C12         -2.1360     0.0060     1.2800 ca         1 IQQ      -0.082000
      7 C2          -0.0440    -0.0110     2.4880 ca         1 IQQ      -0.085000
      8 C3          -0.7480    -0.0100     3.6880 cp         1 IQQ      -0.091000
      9 C4          -0.0160    -0.0220     4.9780 cp         1 IQQ       0.014000
     10 C5          -0.7190    -0.0210     6.1800 ca         1 IQQ      -0.158000
     11 C6          -0.0300    -0.0320     7.3810 ca         1 IQQ       0.093100
     12 C7           1.3570    -0.0430     7.3860 ca         1 IQQ      -0.178000
     13 C8           2.0560    -0.0440     6.1940 ca         1 IQQ      -0.119000
     14 C9           1.3780    -0.0390     4.9910 ca         1 IQQ      -0.132000
     15 O1          -0.7140    -0.0320     8.5560 oh         1 IQQ      -0.531100
     16 O2          -0.6730     0.0050    -1.1670 o          1 IQQ      -0.836300
     17 H6          -2.6910     0.0020     4.6090 ha         1 IQQ       0.107000
     18 H7          -3.9100     0.0130     2.4720 ha         1 IQQ       0.107000
     19 H8          -2.6790     0.0100     0.3420 ha         1 IQQ       0.155000
     20 H            1.0390    -0.0200     2.4930 ha         1 IQQ       0.148000
     21 H1          -1.8030    -0.0120     6.1750 ha         1 IQQ       0.141000
     22 H3           1.8940    -0.0490     8.3260 ha         1 IQQ       0.124000
     23 H4           3.1390    -0.0550     6.2030 ha         1 IQQ       0.124000
     24 H5           1.9280    -0.0400     4.0580 ha         1 IQQ       0.153000
     25 H2          -0.8510    -0.9200     8.8410 ho         1 IQQ       0.408000
@<TRIPOS>BOND
     1    12    13 ar
     2    12    11 ar
     3    13    14 ar
     4    15    11 1
     5    11    10 ar
     6    14     9 ar
     7    10     9 ar
     8     9     8 1
     9     2     1 1
    10     7     8 ar
    11     7     3 ar
    12     8     4 ar
    13     1     3 1
    14     1    16 1
    15     3     6 ar
    16     4     5 ar
    17     6     5 ar
    18     4    17 1
    19     5    18 1
    20     6    19 1
    21     7    20 1
    22    10    21 1
    23    12    22 1
    24    13    23 1
    25    14    24 1
    26    15    25 1
@<TRIPOS>SUBSTRUCTURE
     1 IQQ         1 TEMP              0 ****  ****    0 ROOT
