@<TRIPOS>MOLECULE
IQS
   33    34     1     0     0
SMALL
bcc


@<TRIPOS>ATOM
      1 C1           0.0000     0.0000     0.0000 ca         1 IQS      -0.157500
      2 C2           1.3630     0.0000     0.0000 ca         1 IQS       0.046000
      3 C3           2.0800     0.0000     1.1940 ca         1 IQS      -0.147000
      4 C4           1.4440     0.0000     2.3970 ca         1 IQS      -0.008000
      5 C5           0.0410     0.0020     2.4370 ca         1 IQS      -0.195300
      6 C6          -0.6710     0.0020     3.6470 ca         1 IQS       0.440200
      7 N7          -1.9830     0.0030     3.6340 nb         1 IQS      -0.591000
      8 C8          -2.6900     0.0040     2.5110 ca         1 IQS       0.421200
      9 C9          -2.0940     0.0030     1.2870 ca         1 IQS      -0.236300
     10 C10         -0.6880     0.0070     1.2200 ca         1 IQS       0.068000
     11 S           -0.8860    -0.0000    -1.5210 sy         1 IQS       1.052200
     12 O1          -1.8620    -1.0260    -1.4000 o          1 IQS      -0.585800
     13 O2           0.0980     0.0810    -2.5430 o          1 IQS      -0.585800
     14 N1'         -1.7350     1.4200    -1.6000 n7         1 IQS      -0.589100
     15 C2'         -1.0210     2.6970    -1.6770 c3         1 IQS       0.225800
     16 C3'         -2.0260     3.8340    -1.8650 c3         1 IQS       0.122800
     17 N4'         -1.3120     5.1130    -1.9420 n7         1 IQS      -0.572200
     18 C5'         -2.3300     6.1560    -2.1200 c3         1 IQS       0.173100
     19 H2           1.8970    -0.0000    -0.9430 ha         1 IQS       0.129000
     20 H3           3.1630    -0.0000     1.1650 ha         1 IQS       0.111000
     21 H4           2.0160     0.0000     3.3170 ha         1 IQS       0.107000
     22 H6          -0.1380     0.0010     4.5900 h4         1 IQS      -0.017900
     23 H8          -3.7710     0.0050     2.5710 h4         1 IQS      -0.020900
     24 H9          -2.6910     0.0030     0.3830 ha         1 IQS       0.142000
     25 HN1         -2.7350     1.4030    -1.6410 hn         1 IQS       0.350800
     26 H2'1        -0.4650     2.8550    -0.7610 h1         1 IQS       0.020200
     27 H2'2        -0.3370     2.6780    -2.5160 h1         1 IQS       0.020200
     28 H3'1        -2.5830     3.6760    -2.7800 h1         1 IQS       0.012200
     29 H3'2        -2.7110     3.8530    -1.0250 h1         1 IQS       0.012200
     30 HN4         -0.6990     5.1070    -2.7330 hn         1 IQS       0.253800
     31 H5'1        -2.8870     5.9660    -3.0290 h1         1 IQS       0.000367
     32 H5'2        -1.8480     7.1240    -2.1870 h1         1 IQS       0.000367
     33 H5'3        -3.0070     6.1480    -1.2740 h1         1 IQS       0.000367
@<TRIPOS>BOND
     1     1     2 ar  
     2     1    10 ar  
     3     1    11 1   
     4     2     3 ar  
     5     2    19 1   
     6     3     4 ar  
     7     3    20 1   
     8     4     5 ar  
     9     4    21 1   
    10     5     6 ar  
    11     5    10 ar  
    12     6     7 ar  
    13     6    22 1   
    14     7     8 ar  
    15     8     9 ar  
    16     8    23 1   
    17     9    10 ar  
    18     9    24 1   
    19    11    12 2   
    20    11    13 2   
    21    11    14 1   
    22    14    15 1   
    23    14    25 1   
    24    15    16 1   
    25    15    26 1   
    26    15    27 1   
    27    16    17 1   
    28    16    28 1   
    29    16    29 1   
    30    17    18 1   
    31    17    30 1   
    32    18    31 1   
    33    18    32 1   
    34    18    33 1   
@<TRIPOS>SUBSTRUCTURE
     1 IQS         1 TEMP              0 ****  ****    0 ROOT
