@<TRIPOS>MOLECULE
IQU
   31    32     1     0     0
SMALL
bcc


@<TRIPOS>ATOM
      1 C1           0.0000     0.0000     0.0000 ca         1 IQU      -0.183500
      2 C2           1.3630     0.0000     0.0000 ca         1 IQU       0.053000
      3 C3           2.0810     0.0000     1.1940 ca         1 IQU      -0.152000
      4 C4           1.4430    -0.0000     2.3980 ca         1 IQU       0.015000
      5 C5           0.0400    -0.0010     2.4370 ca         1 IQU      -0.201300
      6 C6          -0.6720    -0.0020     3.6480 ca         1 IQU       0.456200
      7 N7          -1.9830    -0.0020     3.6350 nb         1 IQU      -0.579000
      8 C8          -2.6900    -0.0020     2.5130 ca         1 IQU       0.441200
      9 C9          -2.0950    -0.0010     1.2870 ca         1 IQU      -0.263300
     10 C10         -0.6890     0.0050     1.2200 ca         1 IQU       0.064000
     11 S           -0.8880     0.0000    -1.5220 sy         1 IQU       1.059200
     12 O1           0.0970     0.0820    -2.5430 o          1 IQU      -0.557300
     13 O2          -1.8620    -1.0270    -1.4000 o          1 IQU      -0.557300
     14 N1'         -1.7370     1.4200    -1.6000 n7         1 IQU      -0.599100
     15 C2'         -1.0230     2.6960    -1.6730 c3         1 IQU       0.232800
     16 C3'         -1.9900     3.7960    -2.1200 c3         1 IQU      -0.067200
     17 N4'         -1.2730     5.0770    -2.1930 nz         1 IQU       0.094400
     18 H2           1.8960     0.0000    -0.9430 ha         1 IQU       0.128000
     19 H3           3.1640     0.0000     1.1650 ha         1 IQU       0.121000
     20 H4           2.0150    -0.0000     3.3180 ha         1 IQU       0.116000
     21 H6          -0.1390    -0.0020     4.5920 h4         1 IQU      -0.008900
     22 H8          -3.7710    -0.0020     2.5730 h4         1 IQU      -0.015900
     23 H9          -2.6920    -0.0010     0.3830 ha         1 IQU       0.134000
     24 H1'         -2.7360     1.4030    -1.6470 hn         1 IQU       0.360800
     25 H2'1        -0.2120     2.6160    -2.3870 h1         1 IQU       0.028700
     26 H2'2        -0.6220     2.9420    -0.6970 h1         1 IQU       0.028700
     27 H3'1        -2.8000     3.8760    -1.4060 hx         1 IQU       0.088700
     28 H3'2        -2.3900     3.5500    -3.0950 hx         1 IQU       0.088700
     29 H4'1        -0.8660     5.2820    -1.3020 hn         1 IQU       0.224467
     30 H4'2        -1.9150     5.8030    -2.4420 hn         1 IQU       0.224467
     31 H4'3        -0.5520     5.0160    -2.8840 hn         1 IQU       0.224467
@<TRIPOS>BOND
     1     1     2 ar  
     2     1    10 ar  
     3     1    11 1   
     4     2     3 ar  
     5     2    18 1   
     6     3     4 ar  
     7     3    19 1   
     8     4     5 ar  
     9     4    20 1   
    10     5     6 ar  
    11     5    10 ar  
    12     6     7 ar  
    13     6    21 1   
    14     7     8 ar  
    15     8     9 ar  
    16     8    22 1   
    17     9    10 ar  
    18     9    23 1   
    19    11    12 2   
    20    11    13 2   
    21    11    14 1   
    22    14    15 1   
    23    14    24 1   
    24    15    16 1   
    25    15    25 1   
    26    15    26 1   
    27    16    17 1   
    28    16    27 1   
    29    16    28 1   
    30    17    29 1   
    31    17    30 1   
    32    17    31 1   
@<TRIPOS>SUBSTRUCTURE
     1 IQU         1 TEMP              0 ****  ****    0 ROOT
