@<TRIPOS>MOLECULE
molecule
   31    33     1     0     0
SMALL
bcc


@<TRIPOS>ATOM
      1 N1           0.0000     0.0000     0.0000 nb         1 IQW      -0.850000
      2 C2           1.3280     0.0000     0.0000 ca         1 IQW       0.990900
      3 N3           2.0370     0.0000     1.1160 nb         1 IQW      -0.823000
      4 C4           1.4350     0.0020     2.3050 ca         1 IQW       0.532800
      5 C5           0.0300     0.0030     2.3470 ca         1 IQW      -0.408400
      6 C6          -0.6840     0.0010     1.1400 ca         1 IQW       0.785200
      7 NAB          1.9940    -0.0020    -1.2140 nv         1 IQW      -1.051500
      8 NAC         -2.0660     0.0030     1.1360 nv         1 IQW      -1.002500
      9 CAD         -3.3420    -0.9100     5.8340 ca         1 IQW      -0.124500
     10 CAE         -3.9240     0.9290     4.4070 ca         1 IQW      -0.124500
     11 CAF         -2.0640    -0.9170     5.3140 ca         1 IQW      -0.130500
     12 CAG         -2.6480     0.9310     3.8790 ca         1 IQW      -0.130500
     13 CAH          0.8260     0.0030     4.4670 cc         1 IQW      -0.103100
     14 NAK          1.8840     0.0020     3.5980 na         1 IQW      -0.270100
     15 CAL         -4.2710     0.0110     5.3810 ca         1 IQW      -0.086300
     16 CAN         -1.7090     0.0060     4.3310 ca         1 IQW      -0.017800
     17 CAP         -0.3370     0.0040     3.7700 cd         1 IQW      -0.073400
     18 HAA         -5.8150    -0.8860     6.5410 hc         1 IQW       0.043700
     19 HAAA        -6.3860     0.0400     5.1460 hc         1 IQW       0.043700
     20 HAAB        -5.7950     0.8820     6.5850 hc         1 IQW       0.043700
     21 HNAB         2.0390     0.8350    -1.7610 hn         1 IQW       0.442800
     22 HNAA         2.4380    -0.8370    -1.5400 hn         1 IQW       0.442800
     23 HNAC        -2.5640    -0.0700     0.2710 hn         1 IQW       0.447800
     24 HNAD        -2.5700     0.0740     1.9980 hn         1 IQW       0.447800
     25 HAD         -3.6190    -1.6260     6.5980 ha         1 IQW       0.132000
     26 HAE         -4.6550     1.6470     4.0560 ha         1 IQW       0.132000
     27 HAF         -1.3380    -1.6390     5.6690 ha         1 IQW       0.139000
     28 HAG         -2.3780     1.6500     3.1160 ha         1 IQW       0.139000
     29 HAH          0.9060     0.0050     5.5470 h4         1 IQW       0.174000
     30 HNAK         2.8470     0.0020     3.8690 hn         1 IQW       0.306700
     31 CAA         -5.6650     0.0120     5.9540 c3         1 IQW      -0.047800
@<TRIPOS>BOND
     1     1     2 ar
     2     1     6 ar
     3     2     3 ar
     4     2     7 1
     5     3     4 ar
     6     4     5 ar
     7     4    14 1
     8     5     6 ar
     9     5    17 1
    10     6     8 1
    11    31    15 1
    12     9    11 ar
    13     9    15 ar
    14    10    12 ar
    15    10    15 ar
    16    11    16 ar
    17    12    16 ar
    18    13    14 1
    19    13    17 2
    20    16    17 1
    21    31    18 1
    22    31    19 1
    23    31    20 1
    24     7    21 1
    25     7    22 1
    26     8    23 1
    27     8    24 1
    28     9    25 1
    29    10    26 1
    30    11    27 1
    31    12    28 1
    32    13    29 1
    33    14    30 1
@<TRIPOS>SUBSTRUCTURE
     1 IQW         1 TEMP              0 ****  ****    0 ROOT
