@<TRIPOS>MOLECULE
IQX
   44    46     1     0     0
SMALL
bcc


@<TRIPOS>ATOM
      1 N1           0.0000     0.0000     0.0000 nb         1 IQX      -0.562000
      2 C2           1.3190     0.0000     0.0000 ca         1 IQX       0.515500
      3 C3          -0.6970    -0.0010     1.1190 ca         1 IQX       0.402200
      4 C4           2.0350     0.0000     1.1960 ca         1 IQX      -0.063700
      5 C5          -0.0570    -0.0010     2.3570 ca         1 IQX      -0.074300
      6 C6           1.3420    -0.0010     2.3990 ca         1 IQX      -0.122000
      7 C7          -0.8450    -0.0010     3.6090 cc         1 IQX      -0.086400
      8 C8          -1.8910     0.8040     3.8880 cd         1 IQX       0.374600
      9 N9          -2.4240     0.6060     5.0740 nd         1 IQX      -0.551000
     10 C10         -1.8930    -0.3170     5.8150 cc         1 IQX       0.412300
     11 S11         -0.5880    -1.0560     4.9950 ss         1 IQX      -0.297300
     12 C12         -2.4040     1.8420     2.9240 c3         1 IQX      -0.025400
     13 N13         -2.3260    -0.6580     7.0890 ns         1 IQX      -0.078400
     14 C14         -3.3720    -0.0130     7.6420 c          1 IQX       0.536100
     15 C15         -3.8420    -0.3850     9.0250 c3         1 IQX      -0.065100
     16 O16         -3.9360     0.8660     7.0250 o          1 IQX      -0.563100
     17 N17          3.4340     0.0000     1.1830 nu         1 IQX      -0.364500
     18 S18          4.2710    -0.8230     2.3510 sy         1 IQX       1.072200
     19 O19          5.6500    -0.6600     2.0460 o          1 IQX      -0.570300
     20 O20          3.7010    -0.4450     3.5970 o          1 IQX      -0.570300
     21 C21          3.9150    -2.5350     2.1400 cc         1 IQX      -0.207900
     22 C22          4.5980    -3.3930     1.3760 cd         1 IQX       0.480600
     23 S23          2.5980    -3.4210     2.9060 ss         1 IQX      -0.228300
     24 C24          3.0930    -4.8560     2.1160 cc         1 IQX       0.490700
     25 N25          4.1310    -4.6250     1.3850 nd         1 IQX      -0.594000
     26 C26          5.8030    -2.9840     0.5700 c3         1 IQX      -0.046400
     27 C27          2.4180    -6.1950     2.2580 c3         1 IQX      -0.008400
     28 F28          1.9860     0.0000    -1.1750 f          1 IQX      -0.224200
     29 H3          -1.7790    -0.0010     1.0750 h4         1 IQX      -0.002900
     30 H6           1.8710    -0.0010     3.3450 ha         1 IQX       0.196000
     31 H12         -1.5670     2.3610     2.4720 hc         1 IQX       0.018700
     32 H12A        -2.9890     1.3590     2.1510 hc         1 IQX       0.018700
     33 H12B        -3.0250     2.5530     3.4550 hc         1 IQX       0.018700
     34 H15         -4.6840     0.2390     9.2990 hc         1 IQX       0.024700
     35 H15A        -3.0360    -0.2340     9.7330 hc         1 IQX       0.024700
     36 H15B        -4.1440    -1.4250     9.0360 hc         1 IQX       0.024700
     37 HN17         3.9250     0.4030     0.4100 hn         1 IQX       0.355800
     38 H26          6.6010    -2.6850     1.2400 hc         1 IQX       0.031367
     39 H26A         6.1340    -3.8200    -0.0340 hc         1 IQX       0.031367
     40 H26B         5.5420    -2.1530    -0.0740 hc         1 IQX       0.031367
     41 H27          3.1520    -6.9420     2.5360 hc         1 IQX       0.023700
     42 H27A         1.6550    -6.1360     3.0250 hc         1 IQX       0.023700
     43 H27B         1.9610    -6.4710     1.3150 hc         1 IQX       0.023700
     44 HN13        -1.8600    -1.3840     7.5980 hn         1 IQX       0.173500
@<TRIPOS>BOND
     1     1     2 ar  
     2     1     3 ar  
     3     2     4 ar  
     4     2    28 1   
     5     3     5 ar  
     6     3    29 1   
     7     4     6 ar  
     8     4    17 1   
     9     5     6 ar  
    10     5     7 1   
    11     6    30 1   
    12     7     8 2   
    13     7    11 1   
    14     8     9 1   
    15     8    12 1   
    16     9    10 2   
    17    10    11 1   
    18    10    13 1   
    19    12    31 1   
    20    12    32 1   
    21    12    33 1   
    22    13    14 1   
    23    13    44 1   
    24    14    15 1   
    25    14    16 2   
    26    15    34 1   
    27    15    35 1   
    28    15    36 1   
    29    17    18 1   
    30    17    37 1   
    31    18    19 2   
    32    18    20 2   
    33    18    21 1   
    34    21    22 2   
    35    21    23 1   
    36    22    25 1   
    37    22    26 1   
    38    23    24 1   
    39    24    25 2   
    40    24    27 1   
    41    26    38 1   
    42    26    39 1   
    43    26    40 1   
    44    27    41 1   
    45    27    42 1   
    46    27    43 1   
@<TRIPOS>SUBSTRUCTURE
     1 IQX         1 TEMP              0 ****  ****    0 ROOT
