@<TRIPOS>MOLECULE
molecule
   44    46     1     0     0
SMALL
bcc


@<TRIPOS>ATOM
      1 N1           0.0000     0.0000     0.0000 nb         1 IQX      -0.700000
      2 C2           1.3190     0.0000     0.0000 ca         1 IQX       0.612500
      3 C3          -0.6970    -0.0010     1.1190 ca         1 IQX       0.443200
      4 C4           2.0350     0.0000     1.1960 ca         1 IQX       0.003300
      5 C5          -0.0570    -0.0010     2.3570 ca         1 IQX      -0.102300
      6 C6           1.3420    -0.0010     2.3990 ca         1 IQX      -0.123000
      7 C7          -0.8450    -0.0010     3.6090 cc         1 IQX      -0.139400
      8 C8          -1.8910     0.8040     3.8880 cd         1 IQX       0.429600
      9 N9          -2.4240     0.6060     5.0740 nd         1 IQX      -0.684000
     10 C10         -1.8930    -0.3170     5.8150 cc         1 IQX       0.580300
     11 S11         -0.5880    -1.0560     4.9950 ss         1 IQX      -0.205300
     12 C12         -2.4040     1.8420     2.9240 c3         1 IQX      -0.122400
     13 N13         -2.3260    -0.6580     7.0890 ns         1 IQX      -0.535400
     14 C14         -3.3720    -0.0130     7.6420 c          1 IQX       0.644100
     15 C15         -3.8420    -0.3850     9.0250 c3         1 IQX      -0.169100
     16 O16         -3.9360     0.8660     7.0250 o          1 IQX      -0.523100
     17 N17          3.4340     0.0000     1.1830 nu         1 IQX      -0.749500
     18 S18          4.2710    -0.8230     2.3510 sy         1 IQX       1.454200
     19 O19          5.6500    -0.6600     2.0460 o          1 IQX      -0.624800
     20 O20          3.7010    -0.4450     3.5970 o          1 IQX      -0.624800
     21 C21          3.9150    -2.5350     2.1400 cc         1 IQX      -0.412900
     22 C22          4.5980    -3.3930     1.3760 cd         1 IQX       0.523600
     23 S23          2.5980    -3.4210     2.9060 ss         1 IQX      -0.106300
     24 C24          3.0930    -4.8560     2.1160 cc         1 IQX       0.495700
     25 N25          4.1310    -4.6250     1.3850 nd         1 IQX      -0.707000
     26 C26          5.8030    -2.9840     0.5700 c3         1 IQX      -0.141400
     27 C27          2.4180    -6.1950     2.2580 c3         1 IQX      -0.122400
     28 F28          1.9860     0.0000    -1.1750 f          1 IQX      -0.219200
     29 H3          -1.7790    -0.0010     1.0750 h4         1 IQX       0.042100
     30 H6           1.8710    -0.0010     3.3450 ha         1 IQX       0.208000
     31 H12         -1.5670     2.3610     2.4720 hc         1 IQX       0.057033
     32 H12A        -2.9890     1.3590     2.1510 hc         1 IQX       0.057033
     33 H12B        -3.0250     2.5530     3.4550 hc         1 IQX       0.057033
     34 H15         -4.6840     0.2390     9.2990 hc         1 IQX       0.065033
     35 H15A        -3.0360    -0.2340     9.7330 hc         1 IQX       0.065033
     36 H15B        -4.1440    -1.4250     9.0360 hc         1 IQX       0.065033
     37 HN17         3.9250     0.4030     0.4100 hn         1 IQX       0.473800
     38 H26          6.6010    -2.6850     1.2400 hc         1 IQX       0.069033
     39 H26A         6.1340    -3.8200    -0.0340 hc         1 IQX       0.069033
     40 H26B         5.5420    -2.1530    -0.0740 hc         1 IQX       0.069033
     41 H27          3.1520    -6.9420     2.5360 hc         1 IQX       0.064700
     42 H27A         1.6550    -6.1360     3.0250 hc         1 IQX       0.064700
     43 H27B         1.9610    -6.4710     1.3150 hc         1 IQX       0.064700
     44 HN13        -1.8600    -1.3840     7.5980 hn         1 IQX       0.334500
@<TRIPOS>BOND
     1     1     2 ar
     2     1     3 ar
     3     2     4 ar
     4     2    28 1
     5     3     5 ar
     6     4     6 ar
     7     4    17 1
     8     5     6 ar
     9     5     7 1
    10     7     8 2
    11     7    11 1
    12     8     9 1
    13     8    12 1
    14     9    10 2
    15    10    11 1
    16    10    13 1
    17    13    14 1
    18    14    15 1
    19    14    16 2
    20    17    18 1
    21    18    19 2
    22    18    20 2
    23    18    21 1
    24    21    22 2
    25    21    23 1
    26    22    25 1
    27    22    26 1
    28    23    24 1
    29    24    25 2
    30    24    27 1
    31     3    29 1
    32     6    30 1
    33    13    44 1
    34    12    31 1
    35    12    32 1
    36    12    33 1
    37    15    34 1
    38    15    35 1
    39    15    36 1
    40    17    37 1
    41    26    38 1
    42    26    39 1
    43    26    40 1
    44    27    41 1
    45    27    42 1
    46    27    43 1
@<TRIPOS>SUBSTRUCTURE
     1 IQX         1 TEMP              0 ****  ****    0 ROOT
