@<TRIPOS>MOLECULE
IQZ
   34    37     1     0     0
SMALL
bcc


@<TRIPOS>ATOM
      1 C1           0.0000     0.0000     0.0000 ca         1 IQZ      -0.097000
      2 C2           1.3930     0.0000     0.0000 ca         1 IQZ      -0.270200
      3 C3           2.1150     0.0000     1.2200 ca         1 IQZ      -0.022800
      4 C4           1.4580     0.0000     2.4500 ca         1 IQZ      -0.042000
      5 C5           0.0740    -0.0000     2.4220 ca         1 IQZ      -0.120000
      6 C6          -0.6320     0.0000     1.2320 ca         1 IQZ      -0.093000
      7 N7           2.3000     0.0010    -1.0270 na         1 IQZ       0.437600
      8 C8           3.5530    -0.0060    -0.5480 cc         1 IQZ      -0.225300
      9 C9           3.5160    -0.0000     0.8430 cd         1 IQZ      -0.259400
     10 C10          4.8620    -0.0260    -1.3040 c3         1 IQZ       0.222700
     11 N11          5.8890    -0.6220    -0.4380 n3         1 IQZ      -0.522600
     12 C12          6.0130     0.0650     0.8530 c3         1 IQZ       0.060800
     13 C13          4.7060     0.0010     1.6130 c          1 IQZ       0.673300
     14 C16          4.6910    -0.8830    -2.5620 c3         1 IQZ      -0.034400
     15 C17          6.0260    -0.9680    -3.3060 c3         1 IQZ      -0.023400
     16 C18          7.0830    -1.5560    -2.3670 c3         1 IQZ      -0.026400
     17 C19          7.1900    -0.6770    -1.1190 c3         1 IQZ       0.155800
     18 O29          4.6780    -0.0450     2.8250 o          1 IQZ      -0.579100
     19 H1          -0.5650     0.0000    -0.9240 ha         1 IQZ       0.104000
     20 H4           2.0050     0.0000     3.3850 ha         1 IQZ       0.128000
     21 H5          -0.4710    -0.0000     3.3580 ha         1 IQZ       0.101000
     22 H6          -1.7150    -0.0010     1.2650 ha         1 IQZ       0.098000
     23 HN7          2.0610     0.0060    -1.9990 hn         1 IQZ       0.109700
     24 H10          5.1470     0.9820    -1.5780 h1         1 IQZ       0.019700
     25 H121         6.7900    -0.4130     1.4380 h1         1 IQZ       0.030200
     26 H122         6.2750     1.1020     0.6800 h1         1 IQZ       0.030200
     27 H161         4.3730    -1.8790    -2.2790 hc         1 IQZ       0.021200
     28 H162         3.9480    -0.4310    -3.2080 hc         1 IQZ       0.021200
     29 H171         5.9160    -1.6080    -4.1730 hc         1 IQZ       0.015200
     30 H172         6.3300     0.0240    -3.6170 hc         1 IQZ       0.015200
     31 H181         8.0400    -1.5830    -2.8740 hc         1 IQZ       0.023200
     32 H182         6.7920    -2.5590    -2.0790 hc         1 IQZ       0.023200
     33 H191         7.4850     0.3240    -1.4100 h1         1 IQZ       0.011700
     34 H192         7.9290    -1.0960    -0.4480 h1         1 IQZ       0.011700
@<TRIPOS>BOND
     1     1     2 ar  
     2     1     6 ar  
     3     1    19 1   
     4     2     3 ar  
     5     2     7 1   
     6     3     4 ar  
     7     3     9 1   
     8     4     5 ar  
     9     4    20 1   
    10     5     6 ar  
    11     5    21 1   
    12     6    22 1   
    13     7     8 1   
    14     7    23 1   
    15     8     9 2   
    16     8    10 1   
    17     9    13 1   
    18    10    11 1   
    19    10    14 1   
    20    10    24 1   
    21    11    12 1   
    22    11    17 1   
    23    12    13 1   
    24    12    25 1   
    25    12    26 1   
    26    13    18 2   
    27    14    15 1   
    28    14    27 1   
    29    14    28 1   
    30    15    16 1   
    31    15    29 1   
    32    15    30 1   
    33    16    17 1   
    34    16    31 1   
    35    16    32 1   
    36    17    33 1   
    37    17    34 1   
@<TRIPOS>SUBSTRUCTURE
     1 IQZ         1 TEMP              0 ****  ****    0 ROOT
