@<TRIPOS>MOLECULE
molecule
   35    39     1     0     0
SMALL
bcc


@<TRIPOS>ATOM
      1 O28          0.0000     0.0000     0.0000 o          1 IR1      -0.413100
      2 C27          1.2150     0.0000     0.0000 c          1 IR1       0.645100
      3 N26          2.0350     0.0000     1.0740 nc         1 IR1      -0.219400
      4 N25          3.2690     0.0010     0.7190 nd         1 IR1      -0.104000
      5 C15          3.4230     0.0010    -0.6240 ca         1 IR1       0.411300
      6 N14          4.4700     0.0010    -1.4400 nb         1 IR1      -0.214000
      7 C16          2.1150    -0.0060    -1.1790 ca         1 IR1      -0.320900
      8 C17          1.9680    -0.0070    -2.5420 ca         1 IR1      -0.138300
      9 C18          3.1510    -0.0010    -3.3240 ca         1 IR1       0.509100
     10 N13          4.3410     0.0010    -2.7170 nb         1 IR1      -0.296000
     11 C24          3.0690    -0.0030    -4.7860 cc         1 IR1      -0.442400
     12 C12          2.2540     0.8280    -5.5850 cd         1 IR1       0.012700
     13 C11          1.3370     1.8370    -5.2760 cd         1 IR1      -0.144000
     14 C10          0.6830     2.4810    -6.2900 cc         1 IR1      -0.079000
     15 C9           0.9450     2.1170    -7.6160 cc         1 IR1      -0.187000
     16 C8           1.8380     1.1360    -7.8910 cd         1 IR1      -0.013300
     17 C23          3.7980    -0.8340    -5.6740 cc         1 IR1       0.517200
     18 N22          3.4470    -0.5350    -6.9050 nd         1 IR1      -0.565100
     19 N7           2.4940     0.4890    -6.8880 na         1 IR1       0.215000
     20 C6           4.7870    -1.8650    -5.2800 ca         1 IR1      -0.102900
     21 C1           4.5340    -2.6990    -4.1930 ca         1 IR1      -0.092500
     22 C5           5.9730    -2.0080    -6.0000 ca         1 IR1      -0.092500
     23 C4           6.8890    -2.9710    -5.6300 ca         1 IR1      -0.129000
     24 C3           6.6340    -3.7920    -4.5460 ca         1 IR1      -0.111000
     25 C2           5.4580    -3.6580    -3.8310 ca         1 IR1      -0.129000
     26 H1           0.9870    -0.0090    -3.0040 ha         1 IR1       0.167000
     27 H2           1.1470     2.1060    -4.2440 ha         1 IR1       0.155000
     28 H3          -0.0300     3.2660    -6.0690 ha         1 IR1       0.150000
     29 H4           0.4320     2.6220    -8.4260 ha         1 IR1       0.160000
     30 H5           2.0320     0.8620    -8.9210 h4         1 IR1       0.179000
     31 H6           3.6120    -2.5950    -3.6330 ha         1 IR1       0.135500
     32 H7           6.1740    -1.3660    -6.8490 ha         1 IR1       0.135500
     33 H8           7.8120    -3.0820    -6.1870 ha         1 IR1       0.134500
     34 H9           7.3570    -4.5460    -4.2590 ha         1 IR1       0.132000
     35 H10          5.2620    -4.3050    -2.9850 ha         1 IR1       0.134500
@<TRIPOS>BOND
     1    14    15 1
     2    14    13 2
     3    15    16 2
     4    13    12 1
     5    16    19 1
     6    12    19 1
     7    12    11 2
     8    19    18 1
     9    10     6 ar
    10    10     9 ar
    11     6     5 ar
    12    11     9 1
    13    11    17 1
    14     9     8 ar
    15    18    17 2
    16     5     4 1
    17     5     7 ar
    18     4     3 2
    19    17    20 1
    20     8     7 ar
    21     7     2 1
    22     3     2 1
    23    20    21 ar
    24    20    22 ar
    25     2     1 2
    26    21    25 ar
    27    22    23 ar
    28    25    24 ar
    29    23    24 ar
    30     8    26 1
    31    13    27 1
    32    14    28 1
    33    15    29 1
    34    16    30 1
    35    21    31 1
    36    22    32 1
    37    23    33 1
    38    24    34 1
    39    25    35 1
@<TRIPOS>SUBSTRUCTURE
     1 IR1         1 TEMP              0 ****  ****    0 ROOT
