@<TRIPOS>MOLECULE
IR1
   35    39     1     0     0
SMALL
bcc


@<TRIPOS>ATOM
      1 O28          0.0000     0.0000     0.0000 o          1 IR1      -0.450100
      2 C27          1.2150     0.0000     0.0000 c          1 IR1       0.686100
      3 N26          2.0350     0.0000     1.0740 nc         1 IR1      -0.236400
      4 N25          3.2690     0.0010     0.7190 nd         1 IR1      -0.065000
      5 C15          3.4230     0.0010    -0.6240 ca         1 IR1       0.367300
      6 N14          4.4700     0.0010    -1.4400 nb         1 IR1      -0.165000
      7 C16          2.1150    -0.0060    -1.1790 ca         1 IR1      -0.331900
      8 C17          1.9680    -0.0070    -2.5420 ca         1 IR1      -0.105300
      9 C18          3.1510    -0.0010    -3.3240 ca         1 IR1       0.511100
     10 N13          4.3410     0.0010    -2.7170 nb         1 IR1      -0.286000
     11 C24          3.0690    -0.0030    -4.7860 cc         1 IR1      -0.466400
     12 C12          2.2540     0.8280    -5.5850 cd         1 IR1      -0.175300
     13 C11          1.3370     1.8370    -5.2760 cd         1 IR1      -0.084000
     14 C10          0.6830     2.4810    -6.2900 cc         1 IR1      -0.075000
     15 C9           0.9450     2.1170    -7.6160 cc         1 IR1      -0.117000
     16 C8           1.8380     1.1360    -7.8910 cd         1 IR1      -0.204300
     17 C23          3.7980    -0.8340    -5.6740 cc         1 IR1       0.569200
     18 N22          3.4470    -0.5350    -6.9050 nd         1 IR1      -0.747100
     19 N7           2.4940     0.4890    -6.8880 na         1 IR1       0.741000
     20 C6           4.7870    -1.8650    -5.2800 ca         1 IR1      -0.106900
     21 C1           4.5340    -2.6990    -4.1930 ca         1 IR1      -0.071000
     22 C5           5.9730    -2.0080    -6.0000 ca         1 IR1      -0.071000
     23 C4           6.8890    -2.9710    -5.6300 ca         1 IR1      -0.102000
     24 C3           6.6340    -3.7920    -4.5460 ca         1 IR1      -0.085000
     25 C2           5.4580    -3.6580    -3.8310 ca         1 IR1      -0.102000
     26 H1           0.9870    -0.0090    -3.0040 ha         1 IR1       0.134000
     27 H2           1.1470     2.1060    -4.2440 ha         1 IR1       0.123000
     28 H3          -0.0300     3.2660    -6.0690 ha         1 IR1       0.118000
     29 H4           0.4320     2.6220    -8.4260 ha         1 IR1       0.125000
     30 H5           2.0320     0.8620    -8.9210 h4         1 IR1       0.147000
     31 H6           3.6120    -2.5950    -3.6330 ha         1 IR1       0.106500
     32 H7           6.1740    -1.3660    -6.8490 ha         1 IR1       0.106500
     33 H8           7.8120    -3.0820    -6.1870 ha         1 IR1       0.104500
     34 H9           7.3570    -4.5460    -4.2590 ha         1 IR1       0.102000
     35 H10          5.2620    -4.3050    -2.9850 ha         1 IR1       0.104500
@<TRIPOS>BOND
     1     1     2 2   
     2     2     3 1   
     3     2     7 1   
     4     3     4 2   
     5     4     5 1   
     6     5     6 ar  
     7     5     7 ar  
     8     6    10 ar  
     9     7     8 ar  
    10     8     9 ar  
    11     8    26 1   
    12     9    10 ar  
    13     9    11 1   
    14    11    12 2   
    15    11    17 1   
    16    12    13 1   
    17    12    19 1   
    18    13    14 2   
    19    13    27 1   
    20    14    15 1   
    21    14    28 1   
    22    15    16 2   
    23    15    29 1   
    24    16    19 1   
    25    16    30 1   
    26    17    18 2   
    27    17    20 1   
    28    18    19 1   
    29    20    21 ar  
    30    20    22 ar  
    31    21    25 ar  
    32    21    31 1   
    33    22    23 ar  
    34    22    32 1   
    35    23    24 ar  
    36    23    33 1   
    37    24    25 ar  
    38    24    34 1   
    39    25    35 1   
@<TRIPOS>SUBSTRUCTURE
     1 IR1         1 TEMP              0 ****  ****    0 ROOT
