@<TRIPOS>MOLECULE
molecule
   55    60     1     0     0
SMALL
bcc


@<TRIPOS>ATOM
      1 C01          0.0000     0.0000     0.0000 c3         1 IR2       0.123800
      2 C02          1.5310     0.0000     0.0000 c3         1 IR2       0.136900
      3 C04          1.5500     1.1180     2.1190 c3         1 IR2       0.136900
      4 C05          0.0190     1.1300     2.1400 c3         1 IR2       0.123800
      5 C07         -1.8810     1.2290     0.7370 ca         1 IR2       0.117600
      6 C08         -2.5380     2.2590     1.3990 ca         1 IR2      -0.160500
      7 C09         -3.9160     2.3270     1.3720 ca         1 IR2      -0.086000
      8 C10         -4.6460     1.3660     0.6850 ca         1 IR2      -0.015400
      9 C11         -3.9890     0.3360     0.0230 ca         1 IR2      -0.086000
     10 C12         -2.6110     0.2680     0.0490 ca         1 IR2      -0.160500
     11 C14         -6.6860     1.7060    -0.5100 cc         1 IR2       0.515800
     12 C16         -8.7920     1.5970     0.4520 ca         1 IR2       0.198400
     13 C17        -10.1820     1.6830     0.3340 ca         1 IR2      -0.122000
     14 C18        -10.9730     1.4860     1.4280 ca         1 IR2      -0.083000
     15 C19        -10.4090     1.1970     2.6770 cp         1 IR2      -0.072000
     16 C20         -9.0290     1.1060     2.8200 ca         1 IR2      -0.036000
     17 C21         -8.2160     1.3050     1.7090 ca         1 IR2      -0.206600
     18 C22         -6.7490     1.2320     1.7970 c          1 IR2       0.705100
     19 C24        -11.2870     0.9870     3.8510 cp         1 IR2       0.011000
     20 C25        -11.1330    -0.1230     4.6730 ca         1 IR2      -0.247300
     21 C26        -11.9740    -0.2890     5.7660 ca         1 IR2       0.433200
     22 C28        -13.1200     1.6690     5.3100 ca         1 IR2       0.420600
     23 C29        -14.1370     2.5840     5.6320 ca         1 IR2      -0.163300
     24 C30        -14.3220     3.6890     4.8590 ca         1 IR2      -0.120000
     25 C31        -13.5180     3.9310     3.7480 ca         1 IR2      -0.126000
     26 C32        -12.5240     3.0630     3.4030 ca         1 IR2      -0.117000
     27 C33        -12.3080     1.9150     4.1760 ca         1 IR2      -0.144300
     28 N06         -0.4840     1.1630     0.7590 nh         1 IR2      -0.595000
     29 N13         -6.0460     1.4360     0.6580 n          1 IR2      -0.289500
     30 N15         -7.9780     1.7860    -0.6150 nd         1 IR2      -0.649100
     31 N27        -12.9180     0.5750     6.0520 nb         1 IR2      -0.682000
     32 O03          2.0030     0.0000     1.3500 os         1 IR2      -0.421600
     33 H1          -0.3610     0.0590    -1.0200 h1         1 IR2       0.053700
     34 H2          -0.3610    -0.9100     0.4650 h1         1 IR2       0.053700
     35 H3           1.8910    -0.8860    -0.5080 h1         1 IR2       0.057200
     36 H4           1.8910     0.8860    -0.5080 h1         1 IR2       0.057200
     37 H5           1.9120     2.0350     1.6690 h1         1 IR2       0.057200
     38 H6           1.9240     1.0340     3.1320 h1         1 IR2       0.057200
     39 H7          -0.3420     0.2360     2.6340 h1         1 IR2       0.053700
     40 H8          -0.3270     2.0090     2.6710 h1         1 IR2       0.053700
     41 H9          -1.9690     3.0080     1.9360 ha         1 IR2       0.144500
     42 H10         -4.4290     3.1300     1.8880 ha         1 IR2       0.143000
     43 H11         -4.5580    -0.4130    -0.5130 ha         1 IR2       0.143000
     44 H12         -2.0980    -0.5350    -0.4670 ha         1 IR2       0.144500
     45 H13         -6.0880     1.8630    -1.3990 h5         1 IR2       0.062800
     46 H14        -10.6320     1.9060    -0.6270 ha         1 IR2       0.153000
     47 H15        -12.0500     1.5540     1.3290 ha         1 IR2       0.146000
     48 H16         -8.5920     0.8820     3.7860 ha         1 IR2       0.161000
     49 H17        -10.3620    -0.8540     4.4630 ha         1 IR2       0.144000
     50 H18        -11.8460    -1.1570     6.4020 h4         1 IR2       0.024100
     51 H19        -14.7720     2.4110     6.4930 ha         1 IR2       0.150000
     52 H20        -15.1050     4.3930     5.1130 ha         1 IR2       0.133000
     53 H21        -13.6850     4.8170     3.1480 ha         1 IR2       0.131000
     54 H22        -11.9050     3.2610     2.5370 ha         1 IR2       0.142000
     55 O23         -6.1910     0.9850     2.8500 o          1 IR2      -0.606500
@<TRIPOS>BOND
     1     3    32 1
     2     3     4 1
     3    32     2 1
     4     2     1 1
     5     4    28 1
     6     1    28 1
     7    28     5 1
     8     5     6 ar
     9     5    10 ar
    10     6     7 ar
    11    10     9 ar
    12     7     8 ar
    13     9     8 ar
    14     8    29 1
    15    29    11 1
    16    29    18 1
    17    11    30 2
    18    55    18 2
    19    18    17 1
    20    30    12 1
    21    17    12 ar
    22    17    16 ar
    23    12    13 ar
    24    16    15 ar
    25    13    14 ar
    26    15    14 ar
    27    15    19 1
    28    26    25 ar
    29    26    27 ar
    30    25    24 ar
    31    19    27 ar
    32    19    20 ar
    33    27    22 ar
    34    24    23 ar
    35    20    21 ar
    36    22    23 ar
    37    22    31 ar
    38    21    31 ar
    39     1    33 1
    40     1    34 1
    41     2    35 1
    42     2    36 1
    43     3    37 1
    44     3    38 1
    45     4    39 1
    46     4    40 1
    47     6    41 1
    48     7    42 1
    49     9    43 1
    50    10    44 1
    51    11    45 1
    52    13    46 1
    53    14    47 1
    54    16    48 1
    55    20    49 1
    56    21    50 1
    57    23    51 1
    58    24    52 1
    59    25    53 1
    60    26    54 1
@<TRIPOS>SUBSTRUCTURE
     1 IR2         1 TEMP              0 ****  ****    0 ROOT
