@<TRIPOS>MOLECULE
molecule
   43    46     1     0     0
SMALL
bcc


@<TRIPOS>ATOM
      1 O            0.0000     0.0000     0.0000 o          1 IR4      -0.584100
      2 C1           1.2160     0.0000     0.0000 c          1 IR4       0.609300
      3 C            1.9700     0.0000     1.3050 c3         1 IR4      -0.181100
      4 C2           1.9170    -0.0060    -1.2140 cc         1 IR4      -0.297300
      5 N1           1.3470    -0.0140    -2.4790 na         1 IR4       0.094700
      6 C10          2.3540    -0.0180    -3.4050 cd         1 IR4       0.059700
      7 C4           3.5860    -0.0140    -2.7160 cc         1 IR4      -0.287800
      8 C5           4.9320    -0.0160    -3.3280 ca         1 IR4       0.543100
      9 N            5.0550    -0.0230    -4.6510 nb         1 IR4      -0.714000
     10 C9           6.2370    -0.0240    -5.2340 ca         1 IR4       0.427200
     11 C8           7.3980    -0.0200    -4.4860 ca         1 IR4      -0.273300
     12 C7           7.3160    -0.0140    -3.0990 ca         1 IR4      -0.084000
     13 C6           6.0650    -0.0060    -2.5110 ca         1 IR4      -0.254300
     14 C3           3.3000    -0.0020    -1.3540 cc         1 IR4      -0.051000
     15 C14          0.0430    -0.0160    -2.8770 cd         1 IR4      -0.029300
     16 C13         -0.2860    -0.0240    -4.1860 cc         1 IR4      -0.223000
     17 C12          0.7240    -0.0280    -5.1670 cc         1 IR4       0.215600
     18 C11          2.0510    -0.0260    -4.7700 cd         1 IR4      -0.220000
     19 N2           0.3940    -0.0360    -6.5160 nh         1 IR4      -0.723000
     20 C18          1.4330     0.0900    -7.5510 c3         1 IR4       0.196800
     21 C17          1.0110     1.1950    -8.5260 c3         1 IR4       0.118900
     22 O1          -0.3170     0.9340    -8.9880 os         1 IR4      -0.417600
     23 C16         -1.3070     0.9470    -7.9570 c3         1 IR4       0.118900
     24 C15         -1.0040    -0.1760    -6.9530 c3         1 IR4       0.196800
     25 H1           2.5750     0.8960     1.3720 hc         1 IR4       0.059700
     26 H2           1.2660    -0.0220     2.1280 hc         1 IR4       0.059700
     27 H3           2.6090    -0.8730     1.3520 hc         1 IR4       0.059700
     28 H4           6.2990    -0.0300    -6.3150 h4         1 IR4       0.016100
     29 H5           8.3640    -0.0240    -4.9760 ha         1 IR4       0.135000
     30 H6           8.2130    -0.0090    -2.4910 ha         1 IR4       0.135000
     31 H7           5.9640    -0.0010    -1.4320 ha         1 IR4       0.136000
     32 H8           4.0210     0.1070    -0.5530 ha         1 IR4       0.155000
     33 H9          -0.7420    -0.0120    -2.1300 h4         1 IR4       0.195000
     34 H10         -1.3280    -0.0250    -4.4820 ha         1 IR4       0.153000
     35 H11          2.8440    -0.0300    -5.5080 ha         1 IR4       0.182000
     36 H12          1.5300    -0.8480    -8.0840 h1         1 IR4       0.061200
     37 H13          2.3770     0.3530    -7.0890 h1         1 IR4       0.061200
     38 H14          1.0350     2.1520    -8.0200 h1         1 IR4       0.056200
     39 H15          1.6900     1.2090    -9.3710 h1         1 IR4       0.056200
     40 H16         -1.2860     1.9030    -7.4480 h1         1 IR4       0.056200
     41 H17         -2.2850     0.7860    -8.3950 h1         1 IR4       0.056200
     42 H18         -1.6640    -0.0870    -6.0980 h1         1 IR4       0.061200
     43 H19         -1.1420    -1.1380    -7.4300 h1         1 IR4       0.061200
@<TRIPOS>BOND
     1    12    13 ar
     2    12    11 ar
     3    13     8 ar
     4    11    10 ar
     5     3     2 1
     6     8     7 1
     7     8     9 ar
     8    14     7 1
     9    14     4 2
    10     7     6 2
    11     4     2 1
    12     4     5 1
    13     2     1 2
    14     6     5 1
    15     6    18 1
    16    10     9 ar
    17     5    15 1
    18    23    22 1
    19    23    24 1
    20    18    17 2
    21    21    22 1
    22    21    20 1
    23    15    16 2
    24    17    16 1
    25    17    19 1
    26    19    24 1
    27    19    20 1
    28     3    25 1
    29     3    26 1
    30     3    27 1
    31    10    28 1
    32    11    29 1
    33    12    30 1
    34    13    31 1
    35    14    32 1
    36    15    33 1
    37    16    34 1
    38    18    35 1
    39    20    36 1
    40    20    37 1
    41    21    38 1
    42    21    39 1
    43    23    40 1
    44    23    41 1
    45    24    42 1
    46    24    43 1
@<TRIPOS>SUBSTRUCTURE
     1 IR4         1 TEMP              0 ****  ****    0 ROOT
