@<TRIPOS>MOLECULE
IR5
   46    49     1     0     0
SMALL
bcc


@<TRIPOS>ATOM
      1 C01         0.1100   -0.3010    0.0730 c3        1 IR5     -0.189100
      2 C02         1.5910   -0.0870    0.0750 c         1 IR5      0.610300
      3 O01         2.2320    0.0360    1.1310 o         1 IR5     -0.573100
      4 C03         2.2130   -0.0350   -1.2410 cc        1 IR5     -0.270300
      5 C04         1.5840   -0.1620   -2.5050 cd        1 IR5     -0.070000
      6 C05         2.5680   -0.0550   -3.5200 cd        1 IR5     -0.131200
      7 C06         2.3350   -0.1030   -4.9490 ca        1 IR5     -0.021800
      8 C07         1.6360    0.9480   -5.5590 ca        1 IR5     -0.119000
      9 C08         1.3860    0.9330   -6.9290 ca        1 IR5     -0.133000
     10 C09         1.8310   -0.1360   -7.7060 ca        1 IR5     -0.130000
     11 C10         2.5210   -1.1900   -7.1110 ca        1 IR5     -0.107000
     12 C11         2.7760   -1.1840   -5.7360 ca        1 IR5     -0.073300
     13 C12         3.4970   -2.3170   -5.0820 c3        1 IR5      0.173700
     14 O02         3.9240   -3.2460   -6.0690 oh        1 IR5     -0.602800
     15 C13         3.8220    0.1490   -2.8690 cc        1 IR5     -0.004300
     16 C14         5.1390    0.3410   -3.3610 cc        1 IR5     -0.143000
     17 C15         6.1630    0.5150   -2.4490 cd        1 IR5      0.120100
     18 O1          7.4500    0.5850   -2.9650 os        1 IR5     -0.242200
     19 C16         8.3520    1.4010   -2.2840 ca        1 IR5      0.097100
     20 C17         7.9900    2.6310   -1.7230 ca        1 IR5     -0.153000
     21 C18         8.9820    3.4290   -1.1530 ca        1 IR5     -0.108500
     22 C19        10.3110    3.0050   -1.1470 ca        1 IR5     -0.145000
     23 C20        10.6580    1.7770   -1.7130 ca        1 IR5     -0.108500
     24 C21         9.6840    0.9600   -2.2820 ca        1 IR5     -0.153000
     25 C22         5.9090    0.5190   -1.0450 cd        1 IR5     -0.208000
     26 C1          4.6240    0.3400   -0.5830 cc        1 IR5     -0.043300
     27 N1          3.5870    0.1560   -1.4700 na        1 IR5      0.070700
     28 H1         -0.3920    0.5290   -0.4810 hc        1 IR5      0.066367
     29 H2         -0.2780   -0.3280    1.1200 hc        1 IR5      0.066367
     30 H3         -0.1330   -1.2680   -0.4310 hc        1 IR5      0.066367
     31 H4          0.5180   -0.3190   -2.6580 ha        1 IR5      0.161000
     32 H5          1.2880    1.7920   -4.9450 ha        1 IR5      0.135000
     33 H6          0.8390    1.7650   -7.3960 ha        1 IR5      0.131000
     34 H7          1.6370   -0.1500   -8.7880 ha        1 IR5      0.132000
     35 H8          2.8720   -2.0380   -7.7200 ha        1 IR5      0.155000
     36 H9          4.3900   -1.9230   -4.5200 h1        1 IR5      0.038200
     37 H10         2.8090   -2.8320   -4.3540 h1        1 IR5      0.038200
     38 H11         4.4040   -3.9350   -5.5960 ho        1 IR5      0.403000
     39 H12         5.3120    0.3370   -4.4460 ha        1 IR5      0.178000
     40 H13         6.9410    2.9580   -1.7360 ha        1 IR5      0.150000
     41 H14         8.7110    4.3990   -0.7100 ha        1 IR5      0.137500
     42 H15        11.0870    3.6410   -0.6980 ha        1 IR5      0.136000
     43 H16        11.7080    1.4470   -1.7090 ha        1 IR5      0.137500
     44 H17         9.9410   -0.0070   -2.7360 ha        1 IR5      0.150000
     45 H18         6.7390    0.6620   -0.3380 ha        1 IR5      0.170000
     46 H19         4.3550    0.3300    0.4930 h4        1 IR5      0.206000
@<TRIPOS>BOND
     1    1    2 1   
     2    1   28 1   
     3    1   29 1   
     4    1   30 1   
     5    2    3 2   
     6    2    4 1   
     7    4    5 2   
     8    4   27 1   
     9    5    6 1   
    10    5   31 1   
    11    6    7 1   
    12    6   15 2   
    13    7    8 ar  
    14    7   12 ar  
    15    8    9 ar  
    16    8   32 1   
    17    9   10 ar  
    18    9   33 1   
    19   10   11 ar  
    20   10   34 1   
    21   11   12 ar  
    22   11   35 1   
    23   12   13 1   
    24   13   14 1   
    25   13   36 1   
    26   13   37 1   
    27   14   38 1   
    28   15   16 1   
    29   15   27 1   
    30   16   17 2   
    31   16   39 1   
    32   17   18 1   
    33   17   25 1   
    34   18   19 1   
    35   19   20 ar  
    36   19   24 ar  
    37   20   21 ar  
    38   20   40 1   
    39   21   22 ar  
    40   21   41 1   
    41   22   23 ar  
    42   22   42 1   
    43   23   24 ar  
    44   23   43 1   
    45   24   44 1   
    46   25   26 2   
    47   25   45 1   
    48   26   27 1   
    49   26   46 1   
@<TRIPOS>SUBSTRUCTURE
     1 IR5         1 TEMP              0 ****  ****    0 ROOT
