@<TRIPOS>MOLECULE
molecule
   46    49     1     0     0
SMALL
bcc


@<TRIPOS>ATOM
      1 C01          0.0000     0.0000     0.0000 c3         1 IR5      -0.180100
      2 C02          1.5070     0.0000     0.0000 c          1 IR5       0.606300
      3 O01          2.1150     0.0000     1.0540 o          1 IR5      -0.574100
      4 C03          2.2080    -0.0010    -1.2140 cc         1 IR5      -0.277300
      5 C04          1.6360     0.0060    -2.4830 cc         1 IR5      -0.069000
      6 C05          2.6720     0.0030    -3.4100 cc         1 IR5      -0.132200
      7 C06          2.5290     0.0080    -4.8840 ca         1 IR5      -0.021800
      8 C07          1.9590     1.1060    -5.5280 ca         1 IR5      -0.117000
      9 C08          1.8280     1.1050    -6.9030 ca         1 IR5      -0.131000
     10 C09          2.2610     0.0180    -7.6400 ca         1 IR5      -0.130000
     11 C10          2.8280    -1.0740    -7.0070 ca         1 IR5      -0.103000
     12 C11          2.9690    -1.0820    -5.6340 ca         1 IR5      -0.076300
     13 C12          3.5860    -2.2720    -4.9460 c3         1 IR5       0.184700
     14 O02          3.9400    -3.2550    -5.9210 oh         1 IR5      -0.614800
     15 C13          3.8840    -0.0040    -2.6890 cd         1 IR5      -0.018300
     16 C14          5.2190    -0.0090    -3.1090 cd         1 IR5      -0.126000
     17 C15          6.2250    -0.0150    -2.1610 cc         1 IR5       0.114100
     18 O1           7.5270    -0.0200    -2.5420 os         1 IR5      -0.240200
     19 C16          8.2770     1.0770    -2.2580 ca         1 IR5       0.128100
     20 C17          7.6840     2.2000    -1.7000 ca         1 IR5      -0.178000
     21 C18          8.4500     3.3140    -1.4130 ca         1 IR5      -0.093500
     22 C19          9.8050     3.3110    -1.6820 ca         1 IR5      -0.158000
     23 C20         10.3990     2.1930    -2.2410 ca         1 IR5      -0.093500
     24 C21          9.6400     1.0750    -2.5230 ca         1 IR5      -0.178000
     25 C22          5.8820    -0.0180    -0.7960 cc         1 IR5      -0.192000
     26 C1           4.5850    -0.0140    -0.4230 cd         1 IR5      -0.054300
     27 N1           3.5870    -0.0010    -1.3530 na         1 IR5       0.113700
     28 H1          -0.3610    -0.0270     1.0210 hc         1 IR5       0.062033
     29 H2          -0.3610    -0.8710    -0.5340 hc         1 IR5       0.062033
     30 H3          -0.3610     0.8980    -0.4870 hc         1 IR5       0.062033
     31 H4           0.5820     0.1160    -2.7060 ha         1 IR5       0.164000
     32 H5           1.6200     1.9580    -4.9510 ha         1 IR5       0.134000
     33 H6           1.3860     1.9570    -7.4040 ha         1 IR5       0.129000
     34 H7           2.1540     0.0210    -8.7180 ha         1 IR5       0.130000
     35 H8           3.1670    -1.9220    -7.5900 ha         1 IR5       0.154000
     36 H9           4.4740    -1.9600    -4.4100 h1         1 IR5       0.038200
     37 H10          2.8730    -2.6960    -4.2490 h1         1 IR5       0.038200
     38 H11          4.1760    -4.0580    -5.4860 ho         1 IR5       0.405000
     39 H12          5.4590     0.1610    -4.1520 ha         1 IR5       0.174000
     40 H13          6.6220     2.2040    -1.4880 ha         1 IR5       0.144000
     41 H14          7.9880     4.1910    -0.9760 ha         1 IR5       0.135000
     42 H15         10.4030     4.1860    -1.4590 ha         1 IR5       0.133000
     43 H16         11.4620     2.1920    -2.4490 ha         1 IR5       0.135000
     44 H17         10.1050     0.2000    -2.9610 ha         1 IR5       0.144000
     45 H18          6.6610    -0.0230    -0.0430 ha         1 IR5       0.168000
     46 H19          4.3320    -0.0150     0.6300 h4         1 IR5       0.200000
@<TRIPOS>BOND
     1    14    13 1
     2    13    12 1
     3    11    12 ar
     4    11    10 ar
     5    12     7 ar
     6    10     9 ar
     7     7     6 1
     8     7     8 ar
     9     6     5 1
    10     6    15 2
    11     5     4 2
    12     1     2 1
    13    20    21 ar
    14    20    19 ar
    15     4     2 1
    16     4    27 1
    17    15    27 1
    18    15    16 1
    19     2     3 2
    20     9     8 ar
    21    21    22 ar
    22    27    26 1
    23    16    17 2
    24    26    25 2
    25    17    25 1
    26    17    18 1
    27    18    19 1
    28    19    24 ar
    29    22    23 ar
    30    24    23 ar
    31     1    28 1
    32     1    29 1
    33     1    30 1
    34     5    31 1
    35     8    32 1
    36     9    33 1
    37    10    34 1
    38    11    35 1
    39    13    36 1
    40    13    37 1
    41    14    38 1
    42    16    39 1
    43    20    40 1
    44    21    41 1
    45    22    42 1
    46    23    43 1
    47    24    44 1
    48    25    45 1
    49    26    46 1
@<TRIPOS>SUBSTRUCTURE
     1 IR5         1 TEMP              0 ****  ****    0 ROOT
