@<TRIPOS>MOLECULE
molecule
   48    51     1     0     0
SMALL
bcc


@<TRIPOS>ATOM
      1 C01          0.0000     0.0000     0.0000 c3         1 IR6      -0.181100
      2 C02          1.5070     0.0000     0.0000 c          1 IR6       0.611300
      3 O01          2.1150     0.0000     1.0530 o          1 IR6      -0.578100
      4 C03          2.2080     0.0000    -1.2140 cc         1 IR6      -0.283300
      5 C04          1.6370     0.0060    -2.4840 cc         1 IR6       0.007000
      6 C05          2.6720     0.0100    -3.4110 cc         1 IR6      -0.209200
      7 C06          2.5290     0.0170    -4.8850 ca         1 IR6       0.084200
      8 C07          2.7590     1.1900    -5.6050 ca         1 IR6      -0.141000
      9 C08          2.6230     1.1890    -6.9780 ca         1 IR6      -0.079000
     10 C09          2.2610     0.0310    -7.6400 ca         1 IR6      -0.152000
     11 C10          2.0290    -1.1350    -6.9320 ca         1 IR6      -0.028000
     12 C11          2.1690    -1.1500    -5.5590 ca         1 IR6      -0.286500
     13 S            1.8740    -2.6350    -4.6580 sy         1 IR6       1.203300
     14 C12          3.4960    -3.0790    -3.9760 c3         1 IR6      -0.224300
     15 O02          0.9870    -2.2460    -3.6190 o          1 IR6      -0.626300
     16 O03          1.4770    -3.5730    -5.6490 o          1 IR6      -0.626300
     17 C13          3.8850     0.0060    -2.6900 cd         1 IR6      -0.009300
     18 C14          5.2190     0.0070    -3.1100 cd         1 IR6      -0.137000
     19 C15          6.2250     0.0030    -2.1620 cc         1 IR6       0.124100
     20 O1           7.5270     0.0050    -2.5420 os         1 IR6      -0.241200
     21 C16          8.2700     1.1090    -2.2710 ca         1 IR6       0.129100
     22 C17          7.7200     2.1540    -1.5410 ca         1 IR6      -0.180000
     23 C18          8.4770     3.2760    -1.2660 ca         1 IR6      -0.093000
     24 C19          9.7820     3.3590    -1.7170 ca         1 IR6      -0.158000
     25 C20         10.3310     2.3200    -2.4440 ca         1 IR6      -0.093000
     26 C21          9.5810     1.1930    -2.7160 ca         1 IR6      -0.180000
     27 C22          5.8820    -0.0030    -0.7970 cc         1 IR6      -0.200000
     28 C1           4.5840    -0.0050    -0.4240 cd         1 IR6      -0.048300
     29 N1           3.5870    -0.0000    -1.3540 na         1 IR6       0.112700
     30 H1          -0.3610     0.8610    -0.5490 hc         1 IR6       0.065033
     31 H2          -0.3610     0.0450     1.0200 hc         1 IR6       0.065033
     32 H3          -0.3610    -0.9060    -0.4710 hc         1 IR6       0.065033
     33 H4           0.5820     0.1130    -2.7070 ha         1 IR6       0.179000
     34 H5           3.0430     2.0980    -5.0870 ha         1 IR6       0.141000
     35 H6           2.8020     2.0990    -7.5390 ha         1 IR6       0.134000
     36 H7           2.1530     0.0380    -8.7180 ha         1 IR6       0.137000
     37 H8           1.7480    -2.0400    -7.4560 ha         1 IR6       0.161000
     38 H9           3.6940    -4.1270    -4.1690 h1         1 IR6       0.101033
     39 H10          3.4990    -2.9020    -2.9080 h1         1 IR6       0.101033
     40 H11          4.2630    -2.4740    -4.4450 h1         1 IR6       0.101033
     41 H12          5.4580     0.1740    -4.1530 ha         1 IR6       0.168000
     42 H13          6.6980     2.0900    -1.1870 ha         1 IR6       0.144500
     43 H14          8.0490     4.0920    -0.6960 ha         1 IR6       0.135500
     44 H15         10.3730     4.2410    -1.5020 ha         1 IR6       0.134000
     45 H16         11.3540     2.3860    -2.7950 ha         1 IR6       0.135500
     46 H17         10.0130     0.3790    -3.2870 ha         1 IR6       0.144500
     47 H18          6.6610    -0.0060    -0.0440 ha         1 IR6       0.169000
     48 H19          4.3320    -0.0090     0.6300 h4         1 IR6       0.202000
@<TRIPOS>BOND
     1    15    13 2
     2    14    13 1
     3    16    13 2
     4    13    12 1
     5    12    11 ar
     6    12     7 ar
     7    11    10 ar
     8    22    23 ar
     9    22    21 ar
    10    23    24 ar
    11     7     6 1
    12     7     8 ar
    13     6     5 1
    14     6    17 2
    15     5     4 2
    16    10     9 ar
    17    17    18 1
    18    17    29 1
    19     1     2 1
    20    18    19 2
    21     4    29 1
    22     4     2 1
    23    29    28 1
    24     2     3 2
    25    19    20 1
    26    19    27 1
    27    20    21 1
    28    28    27 2
    29    21    26 ar
    30    24    25 ar
    31     8     9 ar
    32    26    25 ar
    33     1    30 1
    34     1    31 1
    35     1    32 1
    36     5    33 1
    37     8    34 1
    38     9    35 1
    39    10    36 1
    40    11    37 1
    41    14    38 1
    42    14    39 1
    43    14    40 1
    44    18    41 1
    45    22    42 1
    46    23    43 1
    47    24    44 1
    48    25    45 1
    49    26    46 1
    50    27    47 1
    51    28    48 1
@<TRIPOS>SUBSTRUCTURE
     1 IR6         1 TEMP              0 ****  ****    0 ROOT
