@<TRIPOS>MOLECULE
IR6
   48    51     1     0     0
SMALL
bcc


@<TRIPOS>ATOM
      1 C01         0.2730   -0.5480    0.1320 c3        1 IR6     -0.192100
      2 C02         1.7230   -0.1860    0.1120 c         1 IR6      0.613300
      3 O01         2.3650    0.0310    1.1510 o         1 IR6     -0.575100
      4 C03         2.3250   -0.1100   -1.2160 cc        1 IR6     -0.270300
      5 C04         1.6950   -0.3280   -2.4620 cd        1 IR6     -0.037000
      6 C05         2.6580   -0.1650   -3.4970 cd        1 IR6     -0.210200
      7 C06         2.4450   -0.2120   -4.9270 ca        1 IR6      0.128200
      8 C07         2.8770    0.8970   -5.6790 ca        1 IR6     -0.162000
      9 C08         2.6960    0.9420   -7.0550 ca        1 IR6     -0.065000
     10 C09         2.0800   -0.1280   -7.7080 ca        1 IR6     -0.159000
     11 C10         1.6640   -1.2280   -6.9730 ca        1 IR6     -0.035000
     12 C11         1.8380   -1.3030   -5.5780 ca        1 IR6     -0.374500
     13 S           1.2900   -2.7140   -4.8420 sy        1 IR6      1.396300
     14 C12         2.7310   -3.3360   -4.2180 c3        1 IR6     -0.360300
     15 O02         0.3980   -2.4400   -3.7920 o         1 IR6     -0.667800
     16 O03         0.8080   -3.5990   -5.8250 o         1 IR6     -0.667800
     17 C13         3.8950    0.1770   -2.8650 cc        1 IR6      0.015700
     18 C14         5.1870    0.4590   -3.3780 cc        1 IR6     -0.165000
     19 C15         6.2050    0.7390   -2.4840 cd        1 IR6      0.140100
     20 O1          7.4660    0.9170   -3.0310 os        1 IR6     -0.241200
     21 C16         8.3630    1.6990   -2.3010 ca        1 IR6      0.089100
     22 C17         8.0000    2.9260   -1.7340 ca        1 IR6     -0.147500
     23 C18         8.9850    3.7020   -1.1240 ca        1 IR6     -0.110500
     24 C19        10.3070    3.2600   -1.0860 ca        1 IR6     -0.139000
     25 C20        10.6550    2.0350   -1.6570 ca        1 IR6     -0.110500
     26 C21         9.6870    1.2390   -2.2650 ca        1 IR6     -0.147500
     27 C22         5.9660    0.7550   -1.0780 cd        1 IR6     -0.218000
     28 C1          4.7040    0.4820   -0.5970 cc        1 IR6     -0.032300
     29 N1          3.6760    0.1990   -1.4660 na        1 IR6      0.066700
     30 H1          0.1150   -1.5250   -0.3880 hc        1 IR6      0.072367
     31 H2         -0.3200    0.2370   -0.3990 hc        1 IR6      0.072367
     32 H3         -0.0900   -0.6290    1.1850 hc        1 IR6      0.072367
     33 H4          0.6420   -0.5930   -2.5950 ha        1 IR6      0.201000
     34 H5          3.3550    1.7410   -5.1580 ha        1 IR6      0.144000
     35 H6          3.0330    1.8200   -7.6280 ha        1 IR6      0.138000
     36 H7          1.9270   -0.1000   -8.7970 ha        1 IR6      0.143000
     37 H8          1.1810   -2.0760   -7.4960 ha        1 IR6      0.168000
     38 H9          3.3140   -2.5890   -3.6220 h1        1 IR6      0.118367
     39 H10         3.4190   -3.7160   -5.0120 h1        1 IR6      0.118367
     40 H11         2.5350   -4.1990   -3.5320 h1        1 IR6      0.118367
     41 H12         5.3500    0.4360   -4.4640 ha        1 IR6      0.175000
     42 H13         6.9550    3.2650   -1.7730 ha        1 IR6      0.150500
     43 H14         8.7140    4.6700   -0.6760 ha        1 IR6      0.139000
     44 H15        11.0790    3.8800   -0.6050 ha        1 IR6      0.138000
     45 H16        11.7000    1.6910   -1.6260 ha        1 IR6      0.139000
     46 H17         9.9450    0.2740   -2.7240 ha        1 IR6      0.150500
     47 H18         6.7870    0.9800   -0.3830 ha        1 IR6      0.172000
     48 H19         4.4480    0.4730    0.4820 h4        1 IR6      0.209000
@<TRIPOS>BOND
     1    1    2 1   
     2    1   30 1   
     3    1   31 1   
     4    1   32 1   
     5    2    3 2   
     6    2    4 1   
     7    4    5 2   
     8    4   29 1   
     9    5    6 1   
    10    5   33 1   
    11    6    7 1   
    12    6   17 2   
    13    7    8 ar  
    14    7   12 ar  
    15    8    9 ar  
    16    8   34 1   
    17    9   10 ar  
    18    9   35 1   
    19   10   11 ar  
    20   10   36 1   
    21   11   12 ar  
    22   11   37 1   
    23   12   13 1   
    24   13   14 1   
    25   13   15 2   
    26   13   16 2   
    27   14   38 1   
    28   14   39 1   
    29   14   40 1   
    30   17   18 1   
    31   17   29 1   
    32   18   19 2   
    33   18   41 1   
    34   19   20 1   
    35   19   27 1   
    36   20   21 1   
    37   21   22 ar  
    38   21   26 ar  
    39   22   23 ar  
    40   22   42 1   
    41   23   24 ar  
    42   23   43 1   
    43   24   25 ar  
    44   24   44 1   
    45   25   26 ar  
    46   25   45 1   
    47   26   46 1   
    48   27   28 2   
    49   27   47 1   
    50   28   29 1   
    51   28   48 1   
@<TRIPOS>SUBSTRUCTURE
     1 IR6         1 TEMP              0 ****  ****    0 ROOT
