@<TRIPOS>MOLECULE
molecule
   30    30     1     0     0
SMALL
bcc


@<TRIPOS>ATOM
      1 O3P          0.0000     0.0000     0.0000 o          1 IR8      -0.929333
      2 P1           1.4810     0.0000     0.0000 p5         1 IR8       1.214400
      3 O1P          2.0170     0.0000     1.5180 o          1 IR8      -0.929333
      4 O2P          2.0160    -1.3150    -0.7590 o          1 IR8      -0.929333
      5 O1           2.0170     1.3140    -0.7590 os         1 IR8      -0.571200
      6 C1           1.6290     1.6570    -2.0920 c3         1 IR8       0.226400
      7 C2           2.3190     2.9590    -2.5050 c3         1 IR8       0.152500
      8 C3           1.8250     3.3940    -3.9000 c3         1 IR8       0.096600
      9 O3           1.3230     2.2740    -4.6310 oh         1 IR8      -0.582300
     10 N1           3.7740     2.7450    -2.6040 n7         1 IR8      -0.767200
     11 C5           4.1950     3.0050    -3.9960 c3         1 IR8       0.152500
     12 C4           3.1100     3.9520    -4.5680 c3         1 IR8       0.096600
     13 O4           3.0350     3.8460    -5.9900 oh         1 IR8      -0.582300
     14 C6           5.5640     3.6880    -4.0210 c3         1 IR8       0.226400
     15 O6           6.5570     2.7840    -3.5310 os         1 IR8      -0.571200
     16 P2           8.1150     3.1710    -3.4170 p5         1 IR8       1.214400
     17 O4P          8.9560     1.8780    -2.9530 o          1 IR8      -0.929333
     18 O5P          8.6060     3.6310    -4.7350 o          1 IR8      -0.929333
     19 O6P          8.2970     4.3470    -2.3340 o          1 IR8      -0.929333
     20 H3           1.9210     0.8630    -2.7680 h1         1 IR8       0.004950
     21 H4           0.5550     1.7890    -2.1320 h1         1 IR8       0.004950
     22 H5           2.1110     3.7380    -1.7820 h1         1 IR8       0.053700
     23 H6           1.0740     4.1700    -3.8130 h1         1 IR8       0.010700
     24 H7           0.5310     2.5200    -5.0800 ho         1 IR8       0.357500
     25 H8           3.9890     1.7980    -2.3610 hn         1 IR8       0.409800
     26 H10          4.2190     2.0800    -4.5590 h1         1 IR8       0.053700
     27 H11          3.2910     4.9740    -4.2580 h1         1 IR8       0.010700
     28 H12          2.9050     4.7020    -6.3630 ho         1 IR8       0.357500
     29 H13          5.5380     4.5710    -3.3940 h1         1 IR8       0.004950
     30 H14          5.8060     3.9740    -5.0370 h1         1 IR8       0.004950
@<TRIPOS>BOND
     1     9     8 1
     2     8     7 1
     3     8    12 1
     4     1     2 1
     5     6     7 1
     6     6     5 1
     7     7    10 1
     8    13    12 1
     9    12    11 1
    10     5     2 1
    11     2     3 1
    12     2     4 1
    13    10    11 1
    14    11    14 1
    15    14    15 1
    16    15    16 1
    17    18    16 1
    18    16    19 1
    19    16    17 1
    20     6    20 1
    21     6    21 1
    22     7    22 1
    23     8    23 1
    24     9    24 1
    25    10    25 1
    26    11    26 1
    27    12    27 1
    28    13    28 1
    29    14    29 1
    30    14    30 1
@<TRIPOS>SUBSTRUCTURE
     1 IR8         1 TEMP              0 ****  ****    0 ROOT
