@<TRIPOS>MOLECULE
IR9
   30    30     1     0     0
SMALL
bcc


@<TRIPOS>ATOM
      1 O3P          0.0000     0.0000     0.0000 o          1 IR9      -0.775167
      2 P1           1.4800     0.0000     0.0000 p5         1 IR9       0.692400
      3 O1P          2.0170     0.0000     1.5180 o          1 IR9      -0.775167
      4 O2P          2.0160    -1.3150    -0.7590 o          1 IR9      -0.775167
      5 O1           2.0170     1.3140    -0.7590 os         1 IR9      -0.460700
      6 C1           1.6280     2.6390    -0.3910 c3         1 IR9       0.280900
      7 C2           2.3170     3.6480    -1.3120 c3         1 IR9       0.080500
      8 C3           1.8190     5.0860    -1.0190 c3         1 IR9       0.152600
      9 O3           1.6120     5.2730     0.3830 oh         1 IR9      -0.555800
     10 N1           3.7700     3.7240    -1.0130 n7         1 IR9      -0.569200
     11 C5           4.2180     5.0390    -1.5190 c3         1 IR9       0.080500
     12 C4           2.9870     5.9640    -1.5210 c3         1 IR9       0.152600
     13 O4           3.1940     7.0680    -0.6370 oh         1 IR9      -0.555800
     14 C6           4.7630     4.8930    -2.9410 c3         1 IR9       0.280900
     15 O6           5.9580     4.1100    -2.9140 os         1 IR9      -0.460700
     16 P2           6.8030     3.7530    -4.2380 p5         1 IR9       0.692400
     17 O4P          7.4080     5.1050    -4.8680 o          1 IR9      -0.775167
     18 O5P          8.0050     2.7540    -3.8550 o          1 IR9      -0.775167
     19 O6P          5.9170     3.1010    -5.2280 o          1 IR9      -0.775167
     20 H3           0.5540     2.7390    -0.4850 h1         1 IR9      -0.037550
     21 H4           1.9200     2.8290     0.6350 h1         1 IR9      -0.037550
     22 H5           2.1570     3.3950    -2.3530 h1         1 IR9       0.026200
     23 H6           0.9160     5.2970    -1.5780 h1         1 IR9      -0.025300
     24 H7           0.8170     5.7610     0.5200 ho         1 IR9       0.333500
     25 H8           4.2510     2.9960    -1.5050 hn         1 IR9       0.320800
     26 H10          4.9810     5.4440    -0.8650 h1         1 IR9       0.026200
     27 H11          2.7860     6.3140    -2.5270 h1         1 IR9      -0.025300
     28 H12          3.0950     7.8760    -1.1130 ho         1 IR9       0.333500
     29 H13          4.9830     5.8730    -3.3470 h1         1 IR9      -0.037550
     30 H14          4.0240     4.4020    -3.5630 h1         1 IR9      -0.037550
@<TRIPOS>BOND
     1     1     2 1   
     2     2     3 1   
     3     2     4 1   
     4     2     5 1   
     5     5     6 1   
     6     6     7 1   
     7     6    20 1   
     8     6    21 1   
     9     7     8 1   
    10     7    10 1   
    11     7    22 1   
    12     8     9 1   
    13     8    12 1   
    14     8    23 1   
    15     9    24 1   
    16    10    11 1   
    17    10    25 1   
    18    11    12 1   
    19    11    14 1   
    20    11    26 1   
    21    12    13 1   
    22    12    27 1   
    23    13    28 1   
    24    14    15 1   
    25    14    29 1   
    26    14    30 1   
    27    15    16 1   
    28    16    17 1   
    29    16    18 1   
    30    16    19 1   
@<TRIPOS>SUBSTRUCTURE
     1 IR9         1 TEMP              0 ****  ****    0 ROOT
