@<TRIPOS>MOLECULE
molecule
   21    21     1     0     0
SMALL
bcc


@<TRIPOS>ATOM
      1 C1           0.0000     0.0000     0.0000 ca         1 IRA       0.160100
      2 C2           1.3880     0.0000     0.0000 ca         1 IRA      -0.227000
      3 C3           2.0770     0.0000     1.1970 ca         1 IRA      -0.099000
      4 C4           1.3850    -0.0000     2.3950 ca         1 IRA      -0.048900
      5 C5           0.0020    -0.0000     2.3970 ca         1 IRA      -0.071000
      6 O1          -0.6800    -0.0010    -1.1770 os         1 IRA      -0.299900
      7 C6           0.0970    -0.0020    -2.3760 c3         1 IRA       0.130700
      8 Br1          2.3320    -0.0000     4.0320 br         1 IRA      -0.151100
      9 C7          -0.6910    -0.0050     1.2020 ca         1 IRA      -0.027300
     10 C8          -2.7010    -1.4190     1.0760 c          1 IRA       0.897600
     11 O2          -1.9170    -2.3340     0.9910 o          1 IRA      -0.844300
     12 C9          -2.1990    -0.0050     1.2050 c3         1 IRA      -0.145100
     13 O3          -4.0220    -1.6630     1.0570 o          1 IRA      -0.844300
     14 H1           1.9290     0.0500    -0.9370 ha         1 IRA       0.121000
     15 H2           3.1600    -0.0000     1.1980 ha         1 IRA       0.121000
     16 H3          -0.5390     0.0230     3.3360 ha         1 IRA       0.145000
     17 H4          -0.5630    -0.0070    -3.2340 h1         1 IRA       0.030700
     18 H5           0.7260    -0.8840    -2.3980 h1         1 IRA       0.030700
     19 H6           0.7190     0.8850    -2.4040 h1         1 IRA       0.030700
     20 H7          -2.5580     0.4240     2.1330 hc         1 IRA       0.045700
     21 H8          -2.5610     0.5850     0.3710 hc         1 IRA       0.045700
@<TRIPOS>BOND
     1     1     2 ar
     2     1     6 1
     3     1     9 ar
     4     2     3 ar
     5     2    14 1
     6     3     4 ar
     7     3    15 1
     8     4     5 ar
     9     4     8 1
    10     5     9 ar
    11     5    16 1
    12     6     7 1
    13     7    17 1
    14     7    18 1
    15     7    19 1
    16     9    12 1
    17    10    11 1
    18    10    12 1
    19    10    13 1
    20    12    20 1
    21    12    21 1
@<TRIPOS>SUBSTRUCTURE
     1 IRA         1 TEMP              0 ****  ****    0 ROOT
