@<TRIPOS>MOLECULE
IRA
   21    21     1     0     0
SMALL
bcc


@<TRIPOS>ATOM
      1 C1          0.3730    0.4380   -0.0490 ca        1 IRA      0.098100
      2 C2          1.7300    0.6290    0.2510 ca        1 IRA     -0.153000
      3 C3          2.1790    0.4810    1.5590 ca        1 IRA     -0.132000
      4 C4          1.2750    0.1200    2.5630 ca        1 IRA     -0.032900
      5 C5         -0.0710   -0.0780    2.2650 ca        1 IRA     -0.092000
      6 O1         -0.0230    0.6940   -1.3560 os        1 IRA     -0.364900
      7 C6         -0.3920   -0.4800   -2.0860 c3        1 IRA      0.091700
      8 BR1         1.8950   -0.0970    4.3250 br        1 IRA     -0.141100
      9 C7         -0.5520    0.1000    0.9570 ca        1 IRA     -0.028300
     10 C8         -2.4240   -1.5600    0.7810 c         1 IRA      0.919600
     11 O2         -2.4520   -2.2250   -0.2930 o         1 IRA     -0.833300
     12 C9         -1.9970   -0.0710    0.6910 c3        1 IRA     -0.185100
     13 O3         -2.7370   -2.0090    1.9160 o         1 IRA     -0.833300
     14 H1          2.4270    0.9020   -0.5530 ha        1 IRA      0.129000
     15 H2          3.2420    0.6410    1.7910 ha        1 IRA      0.125000
     16 H3         -0.7930   -0.4030    3.0350 ha        1 IRA      0.174000
     17 H4         -1.0610   -1.1540   -1.4850 h1        1 IRA      0.054033
     18 H5          0.5360   -1.0190   -2.3980 h1        1 IRA      0.054033
     19 H6         -0.9290   -0.0770   -2.9800 h1        1 IRA      0.054033
     20 H7         -2.5860    0.4990    1.4550 hc        1 IRA      0.047700
     21 H8         -2.2580    0.3210   -0.3250 hc        1 IRA      0.047700
@<TRIPOS>BOND
     1    1    2 ar  
     2    1    6 1   
     3    1    9 ar  
     4    2    3 ar  
     5    2   14 1   
     6    3    4 ar  
     7    3   15 1   
     8    4    5 ar  
     9    4    8 1   
    10    5    9 ar  
    11    5   16 1   
    12    6    7 1   
    13    7   17 1   
    14    7   18 1   
    15    7   19 1   
    16    9   12 1   
    17   10   11 1   
    18   10   12 1   
    19   10   13 1   
    20   12   20 1   
    21   12   21 1   
@<TRIPOS>SUBSTRUCTURE
     1 IRA         1 TEMP              0 ****  ****    0 ROOT
