@<TRIPOS>MOLECULE
IRB
   34    37     1     0     0
SMALL
bcc


@<TRIPOS>ATOM
      1 OAA          0.0000     0.0000     0.0000 o          1 IRB      -0.876300
      2 OAC         -0.7830    -0.0010     4.6680 oh         1 IRB      -0.345500
      3 OAD          1.8870     0.0020    -1.1680 o          1 IRB      -0.876300
      4 BrAE         2.4090     0.1810    12.3670 br         1 IRB      -0.172100
      5 CAF         -0.3000     0.6830     9.2680 ca         1 IRB      -0.121000
      6 CAG          0.2840     0.5830    10.5210 ca         1 IRB      -0.090000
      7 CAH          3.3520     0.0000     1.2780 ca         1 IRB      -0.021000
      8 CAI          0.4640     0.5090     8.1320 ca         1 IRB      -0.110000
      9 CAJ          4.0480    -0.0010     2.4650 ca         1 IRB      -0.140000
     10 CAK          1.2590    -0.0000     2.4870 ca         1 IRB       0.008000
     11 NAL          0.3120    -0.0010     5.5640 n2         1 IRB      -0.359200
     12 NAM          3.7710    -0.1450     9.3620 ns         1 IRB       0.015900
     13 NAN          3.8290    -0.0010     4.9860 na         1 IRB       0.310600
     14 CAO          1.2140     0.0000     0.0000 c          1 IRB       0.972200
     15 CAP          1.9530    -0.0010     1.2760 ca         1 IRB      -0.117600
     16 CAQ          1.6320     0.3110    10.6490 ca         1 IRB       0.029100
     17 CAR          4.1080    -0.2350     8.0640 c          1 IRB       0.636700
     18 CAS          2.7920     0.0000     5.8810 cc         1 IRB      -0.065700
     19 CAT          1.5340    -0.0010     5.1020 cc         1 IRB       0.470200
     20 CAU          2.9000     0.0000     7.2630 cd         1 IRB      -0.306400
     21 CAV          3.3650     0.0000     3.6820 ca         1 IRB      -0.200200
     22 CAW          1.8240     0.2340     8.2500 ca         1 IRB      -0.024800
     23 CAX          1.9620    -0.0000     3.6820 ca         1 IRB      -0.259900
     24 CAY          2.4190     0.1330     9.5150 ca         1 IRB      -0.118400
     25 HOAC        -1.5220    -0.4230     5.0750 ho         1 IRB       0.408000
     26 HAF         -1.3590     0.8970     9.1810 ha         1 IRB       0.101000
     27 HAG         -0.3220     0.7210    11.4080 ha         1 IRB       0.107000
     28 HAH          3.8920    -0.0000     0.3390 ha         1 IRB       0.135000
     29 HAI          0.0080     0.5870     7.1530 ha         1 IRB       0.173000
     30 HAJ          5.1310    -0.0000     2.4550 ha         1 IRB       0.094000
     31 HAK          0.1750    -0.0010     2.4940 ha         1 IRB       0.137000
     32 HNAM         4.4130    -0.2630    10.1210 hn         1 IRB       0.172500
     33 HNAN         4.7960    -0.0000     5.2420 hn         1 IRB       0.151700
     34 OAB          5.2210    -0.4680     7.6280 o          1 IRB      -0.717500
@<TRIPOS>BOND
     1     1    14 1   
     2     2    11 1   
     3     2    25 1   
     4     3    14 1   
     5     4    16 1   
     6     5     6 ar  
     7     5     8 ar  
     8     5    26 1   
     9     6    16 ar  
    10     6    27 1   
    11     7     9 ar  
    12     7    15 ar  
    13     7    28 1   
    14     8    22 ar  
    15     8    29 1   
    16     9    21 ar  
    17     9    30 1   
    18    10    15 ar  
    19    10    23 ar  
    20    10    31 1   
    21    11    19 2   
    22    12    17 1   
    23    12    24 1   
    24    12    32 1   
    25    13    18 1   
    26    13    21 1   
    27    13    33 1   
    28    14    15 1   
    29    16    24 ar  
    30    17    20 1   
    31    17    34 2   
    32    18    19 1   
    33    18    20 2   
    34    19    23 1   
    35    20    22 1   
    36    21    23 ar  
    37    22    24 ar  
@<TRIPOS>SUBSTRUCTURE
     1 IRB         1 TEMP              0 ****  ****    0 ROOT
