@<TRIPOS>MOLECULE
molecule
   34    37     1     0     0
SMALL
bcc


@<TRIPOS>ATOM
      1 OAA          0.0000     0.0000     0.0000 o          1 IRB      -0.828800
      2 OAC         -0.7830    -0.0010     4.6680 oh         1 IRB      -0.360500
      3 OAD          1.8870     0.0020    -1.1680 o          1 IRB      -0.828800
      4 BrAE         2.4090     0.1810    12.3670 br         1 IRB      -0.127100
      5 CAF         -0.3000     0.6830     9.2680 ca         1 IRB      -0.160000
      6 CAG          0.2840     0.5830    10.5210 ca         1 IRB      -0.093000
      7 CAH          3.3520     0.0000     1.2780 ca         1 IRB      -0.045000
      8 CAI          0.4640     0.5090     8.1320 ca         1 IRB      -0.090000
      9 CAJ          4.0480    -0.0010     2.4650 ca         1 IRB      -0.180000
     10 CAK          1.2590    -0.0000     2.4870 ca         1 IRB      -0.018000
     11 NAL          0.3120    -0.0010     5.5640 n2         1 IRB      -0.428200
     12 NAM          3.7710    -0.1450     9.3620 ns         1 IRB      -0.446100
     13 NAN          3.8290    -0.0010     4.9860 na         1 IRB      -0.205400
     14 CAO          1.2140     0.0000     0.0000 c          1 IRB       0.883200
     15 CAP          1.9530    -0.0010     1.2760 ca         1 IRB      -0.125600
     16 CAQ          1.6320     0.3110    10.6490 ca         1 IRB      -0.049900
     17 CAR          4.1080    -0.2350     8.0640 c          1 IRB       0.728700
     18 CAS          2.7920     0.0000     5.8810 cc         1 IRB       0.106300
     19 CAT          1.5340    -0.0010     5.1020 cc         1 IRB       0.482200
     20 CAU          2.9000     0.0000     7.2630 cd         1 IRB      -0.276400
     21 CAV          3.3650     0.0000     3.6820 ca         1 IRB      -0.020200
     22 CAW          1.8240     0.2340     8.2500 ca         1 IRB      -0.053800
     23 CAX          1.9620    -0.0000     3.6820 ca         1 IRB      -0.263900
     24 CAY          2.4190     0.1330     9.5150 ca         1 IRB       0.058600
     25 HOAC        -1.5220    -0.4230     5.0750 ho         1 IRB       0.421000
     26 HAF         -1.3590     0.8970     9.1810 ha         1 IRB       0.132000
     27 HAG         -0.3220     0.7210    11.4080 ha         1 IRB       0.134000
     28 HAH          3.8920    -0.0000     0.3390 ha         1 IRB       0.167000
     29 HAI          0.0080     0.5870     7.1530 ha         1 IRB       0.193000
     30 HAJ          5.1310    -0.0000     2.4550 ha         1 IRB       0.118000
     31 HAK          0.1750    -0.0010     2.4940 ha         1 IRB       0.172000
     32 HNAM         4.4130    -0.2630    10.1210 hn         1 IRB       0.339500
     33 HNAN         4.7960    -0.0000     5.2420 hn         1 IRB       0.325700
     34 OAB          5.2210    -0.4680     7.6280 o          1 IRB      -0.660500
@<TRIPOS>BOND
     1     1    14 1
     2    34    17 2
     3     2    11 1
     4     3    14 1
     5     4    16 1
     6     5     6 ar
     7     5     8 ar
     8     6    16 ar
     9     7     9 ar
    10     7    15 ar
    11     8    22 ar
    12     9    21 ar
    13    10    15 ar
    14    10    23 ar
    15    11    19 2
    16    12    17 1
    17    12    24 1
    18    13    18 1
    19    13    21 1
    20    14    15 1
    21    16    24 ar
    22    17    20 1
    23    18    19 1
    24    18    20 2
    25    19    23 1
    26    20    22 1
    27    21    23 ar
    28    22    24 ar
    29     2    25 1
    30     5    26 1
    31     6    27 1
    32     7    28 1
    33     8    29 1
    34     9    30 1
    35    10    31 1
    36    12    32 1
    37    13    33 1
@<TRIPOS>SUBSTRUCTURE
     1 IRB         1 TEMP              0 ****  ****    0 ROOT
