@<TRIPOS>MOLECULE
IRE
   55    58     1     0     0
SMALL
bcc


@<TRIPOS>ATOM
      1 CAO         0.3500    0.0670   -0.3010 c3        1 IRE      0.130300
      2 CAL         1.8520   -0.1890   -0.4710 c3        1 IRE      0.126400
      3 OAU         2.5000   -0.3880    0.7790 os        1 IRE     -0.415600
      4 CAM         1.9100   -1.4470    1.5240 c3        1 IRE      0.126400
      5 CAP         0.4120   -1.2140    1.7490 c3        1 IRE      0.130300
      6 NBE        -0.3060   -0.9540    0.5060 n3        1 IRE     -0.723600
      7 CAN        -1.7120   -0.6660    0.7570 c3        1 IRE      0.171800
      8 CAJ        -2.5540   -0.5640   -0.5120 c3        1 IRE     -0.087400
      9 CAK        -4.0240   -0.5290   -0.1260 c3        1 IRE      0.124400
     10 OAV        -4.7330   -0.2980   -1.3520 os        1 IRE     -0.306900
     11 CBA        -6.1080   -0.2520   -1.2440 ca        1 IRE      0.074100
     12 CAZ        -6.7980   -0.0490   -2.4740 ca        1 IRE      0.158100
     13 CAH        -8.1850    0.0230   -2.4940 ca        1 IRE     -0.244000
     14 OAT        -5.9930    0.0670   -3.5840 os        1 IRE     -0.294900
     15 CAA        -6.6560    0.2640   -4.8290 c3        1 IRE      0.107700
     16 CAI        -6.8260   -0.3840   -0.0620 ca        1 IRE     -0.106000
     17 C5         -8.2280   -0.3180   -0.0630 ca        1 IRE     -0.193900
     18 C4         -8.9110   -0.1090   -1.2870 ca        1 IRE      0.166600
     19 N3        -10.3090   -0.0320   -1.2890 na        1 IRE     -0.734600
     20 C2        -10.9790   -0.1390   -0.0780 cc        1 IRE      0.665100
     21 N1        -10.4370   -0.3310    1.0920 nd        1 IRE     -0.753000
     22 C6         -9.0180   -0.4640    1.1950 cd        1 IRE      0.718900
     23 NAS        -8.3820   -0.7260    2.3080 ne        1 IRE     -0.618100
     24 CAY        -9.0080   -0.8640    3.5590 ca        1 IRE      0.163400
     25 CAG        -9.9090    0.0850    4.0860 ca        1 IRE     -0.113000
     26 CAX       -10.4080   -0.0430    5.3820 ca        1 IRE     -0.012600
     27 CL        -11.4830    1.1390    5.9630 cl        1 IRE     -0.080400
     28 CAW       -10.0230   -1.1360    6.1840 ca        1 IRE      0.115900
     29 FAB       -10.4930   -1.2930    7.4440 f         1 IRE     -0.130900
     30 CAD        -9.1280   -2.0890    5.6610 ca        1 IRE     -0.156000
     31 CAE        -8.6270   -1.9560    4.3760 ca        1 IRE     -0.102000
     32 HAO1       -0.1270    0.0560   -1.3200 h1        1 IRE      0.041950
     33 HAO2        0.2110    1.0970    0.1400 h1        1 IRE      0.041950
     34 HAL1        2.3500    0.7180   -0.9030 h1        1 IRE      0.054200
     35 HAL2        2.0290   -1.0790   -1.1310 h1        1 IRE      0.054200
     36 HAM1        2.4530   -1.4360    2.5050 h1        1 IRE      0.054200
     37 HAM2        2.0860   -2.4210    0.9960 h1        1 IRE      0.054200
     38 HAP1        0.2900   -0.3660    2.4840 h1        1 IRE      0.041950
     39 HAP2       -0.0270   -2.1410    2.2120 h1        1 IRE      0.041950
     40 HAN1       -1.8420    0.2890    1.3490 h1        1 IRE      0.033700
     41 HAN2       -2.1130   -1.5110    1.3870 h1        1 IRE      0.033700
     42 HAJ1       -2.3000    0.3680   -1.0820 hc        1 IRE      0.066200
     43 HAJ2       -2.3660   -1.4360   -1.1900 hc        1 IRE      0.066200
     44 HAK1       -4.3490   -1.5060    0.3200 h1        1 IRE      0.043200
     45 HAK2       -4.2360    0.3050    0.5930 h1        1 IRE      0.043200
     46 HAH        -8.7210    0.1830   -3.4410 ha        1 IRE      0.144000
     47 HAA1       -5.8110    0.3210   -5.5620 h1        1 IRE      0.047367
     48 HAA2       -7.3230   -0.6010   -5.0630 h1        1 IRE      0.047367
     49 HAA3       -7.2360    1.2180   -4.8210 h1        1 IRE      0.047367
     50 HAI        -6.2960   -0.5420    0.8920 ha        1 IRE      0.173000
     51 H3        -10.7950    0.1140   -2.1400 hn        1 IRE      0.454800
     52 H2        -12.0860   -0.0500   -0.1330 h5        1 IRE      0.053800
     53 HAG       -10.2240    0.9460    3.4740 ha        1 IRE      0.159000
     54 HAD        -8.8320   -2.9420    6.2900 ha        1 IRE      0.150000
     55 HAE        -7.9260   -2.7140    3.9910 ha        1 IRE      0.148000
@<TRIPOS>BOND
     1    1    2 1   
     2    1    6 1   
     3    1   32 1   
     4    1   33 1   
     5    2    3 1   
     6    2   34 1   
     7    2   35 1   
     8    3    4 1   
     9    4    5 1   
    10    4   36 1   
    11    4   37 1   
    12    5    6 1   
    13    5   38 1   
    14    5   39 1   
    15    6    7 1   
    16    7    8 1   
    17    7   40 1   
    18    7   41 1   
    19    8    9 1   
    20    8   42 1   
    21    8   43 1   
    22    9   10 1   
    23    9   44 1   
    24    9   45 1   
    25   10   11 1   
    26   11   12 ar  
    27   11   16 ar  
    28   12   13 ar  
    29   12   14 1   
    30   13   18 ar  
    31   13   46 1   
    32   14   15 1   
    33   15   47 1   
    34   15   48 1   
    35   15   49 1   
    36   16   17 ar  
    37   16   50 1   
    38   17   18 ar  
    39   17   22 1   
    40   18   19 1   
    41   19   20 1   
    42   19   51 1   
    43   20   21 2   
    44   20   52 1   
    45   21   22 1   
    46   22   23 2   
    47   23   24 1   
    48   24   25 ar  
    49   24   31 ar  
    50   25   26 ar  
    51   25   53 1   
    52   26   27 1   
    53   26   28 ar  
    54   28   29 1   
    55   28   30 ar  
    56   30   31 ar  
    57   30   54 1   
    58   31   55 1   
@<TRIPOS>SUBSTRUCTURE
     1 IRE         1 TEMP              0 ****  ****    0 ROOT
