@<TRIPOS>MOLECULE
IRF
   44    46     1     0     0
SMALL
bcc


@<TRIPOS>ATOM
      1 N1          0.0830   -0.1650    0.0210 nc        1 IRF     -0.424400
      2 C2          1.4980   -0.1250    0.0460 c         1 IRF      0.852900
      3 O2          2.1670   -0.2510   -0.9960 o         1 IRF     -0.580500
      4 N3          2.1960    0.0640    1.2660 n         1 IRF     -0.613500
      5 C4          1.5670    0.2000    2.4970 c         1 IRF      0.609000
      6 O4          2.2370    0.3780    3.5240 o         1 IRF     -0.565500
      7 C4A         0.0590    0.1190    2.4980 cd        1 IRF      0.316800
      8 N5         -0.5910    0.1800    3.6260 nc        1 IRF     -0.521000
      9 C5A        -1.9850    0.0880    3.5890 ca        1 IRF      0.309600
     10 C6         -2.7030    0.1150    4.8060 ca        1 IRF     -0.110300
     11 C7         -4.0870    0.0060    4.8300 ca        1 IRF     -0.073300
     12 C7M        -4.7960    0.0460    6.1320 c3        1 IRF     -0.064800
     13 C8         -4.7820   -0.1430    3.6150 ca        1 IRF      0.078900
     14 C9         -4.1100   -0.1710    2.4040 ca        1 IRF     -0.146000
     15 C9A        -2.6990   -0.0390    2.3530 ca        1 IRF     -0.018600
     16 N10        -1.9960   -0.0150    1.1390 na        1 IRF     -0.100100
     17 C10        -0.5930   -0.0350    1.1510 cd        1 IRF      0.089400
     18 C1'        -2.7190   -0.0950   -0.1170 c3        1 IRF     -0.011700
     19 C2'        -3.1260   -1.5240   -0.5310 c3        1 IRF      0.125100
     20 O2'        -2.0190   -2.3430   -0.8280 oh        1 IRF     -0.585800
     21 C3'        -4.0810   -1.4120   -1.7340 c3        1 IRF      0.113100
     22 O3'        -5.2590   -0.7860   -1.2480 oh        1 IRF     -0.616800
     23 C4'        -4.3870   -2.7860   -2.3520 c3        1 IRF      0.118100
     24 O4'        -5.3000   -2.5200   -3.4080 oh        1 IRF     -0.618800
     25 C5'        -4.9970   -3.7480   -1.3290 c3        1 IRF      0.092400
     26 I8         -6.7990   -0.3350    3.5660 i         1 IRF     -0.115900
     27 O5'        -5.4740   -4.8620   -2.0680 oh        1 IRF     -0.614800
     28 H3          3.1930    0.1000    1.2340 hn        1 IRF      0.350500
     29 H6         -2.1430    0.2220    5.7530 ha        1 IRF      0.168000
     30 H7M1       -4.0750    0.1760    6.9770 hc        1 IRF      0.059033
     31 H7M2       -5.3620   -0.9050    6.3000 hc        1 IRF      0.059033
     32 H7M3       -5.5200    0.8990    6.1580 hc        1 IRF      0.059033
     33 H9         -4.6870   -0.3060    1.4700 ha        1 IRF      0.173000
     34 H1'1       -3.6550    0.5320   -0.0350 h1        1 IRF      0.096200
     35 H1'2       -2.0900    0.3570   -0.9380 h1        1 IRF      0.096200
     36 H2'        -3.6520   -2.0520    0.3160 h1        1 IRF      0.089700
     37 HA         -1.4510   -1.8690   -1.4510 ho        1 IRF      0.424000
     38 H3'        -3.6230   -0.7640   -2.5350 h1        1 IRF      0.056700
     39 HB         -5.9200   -0.8570   -1.9510 ho        1 IRF      0.435000
     40 H4'        -3.4410   -3.2290   -2.7690 h1        1 IRF      0.069700
     41 HC         -5.6160   -3.3740   -3.7310 ho        1 IRF      0.435000
     42 H5'1       -5.8440   -3.2500   -0.7870 h1        1 IRF      0.045200
     43 H5'2       -4.2100   -4.0720   -0.5980 h1        1 IRF      0.045200
     44 H5'        -5.8630   -5.4720   -1.4310 ho        1 IRF      0.414000
@<TRIPOS>BOND
     1    1    2 1   
     2    1   17 2   
     3    2    3 2   
     4    2    4 1   
     5    4    5 1   
     6    4   28 1   
     7    5    6 2   
     8    5    7 1   
     9    7    8 2   
    10    7   17 1   
    11    8    9 1   
    12    9   10 ar  
    13    9   15 ar  
    14   10   11 ar  
    15   10   29 1   
    16   11   12 1   
    17   11   13 ar  
    18   12   30 1   
    19   12   31 1   
    20   12   32 1   
    21   13   14 ar  
    22   13   26 1   
    23   14   15 ar  
    24   14   33 1   
    25   15   16 1   
    26   16   17 1   
    27   16   18 1   
    28   18   19 1   
    29   18   34 1   
    30   18   35 1   
    31   19   20 1   
    32   19   21 1   
    33   19   36 1   
    34   20   37 1   
    35   21   22 1   
    36   21   23 1   
    37   21   38 1   
    38   22   39 1   
    39   23   24 1   
    40   23   25 1   
    41   23   40 1   
    42   24   41 1   
    43   25   27 1   
    44   25   42 1   
    45   25   43 1   
    46   27   44 1   
@<TRIPOS>SUBSTRUCTURE
     1 IRF         1 TEMP              0 ****  ****    0 ROOT
