@<TRIPOS>MOLECULE
IRG
   37    40     1     0     0
SMALL
bcc


@<TRIPOS>ATOM
      1 N1           0.0000     0.0000     0.0000 nb         1 IRG      -0.735000
      2 C2           1.3310     0.0000     0.0000 cp         1 IRG       0.727500
      3 N3           2.0440     0.0000     1.1100 nb         1 IRG      -0.689000
      4 C4           1.4390     0.0010     2.3060 ca         1 IRG       0.498600
      5 C5           0.0210     0.0010     2.3540 ca         1 IRG      -0.374600
      6 C6          -0.6910     0.0000     1.1310 ca         1 IRG       0.576200
      7 CAB          3.3690    -0.0020    -3.7310 ca         1 IRG      -0.089000
      8 CAC          4.0910    -0.0010    -2.5510 ca         1 IRG      -0.121500
      9 CAD          1.9860    -0.0020    -3.7020 ca         1 IRG      -0.121500
     10 CAE          3.4350     0.0000    -1.3370 ca         1 IRG      -0.061000
     11 CAF          1.3190    -0.0070    -2.4940 ca         1 IRG      -0.061000
     12 CAG          0.0920     0.0000     4.7430 ca         1 IRG      -0.186000
     13 CAH         -0.6350     0.0010     3.5900 ca         1 IRG      -0.016000
     14 CAI          2.1660    -0.0010     3.5020 ca         1 IRG      -0.279300
     15 CAJ         -4.2080     0.5720    -0.1730 cx         1 IRG      -0.094900
     16 CAK         -3.9920    -0.9370    -0.2930 cx         1 IRG      -0.094900
     17 NAN         -2.0700     0.0000     1.1160 nu         1 IRG      -0.430900
     18 CAO          1.4920    -0.0000     4.7070 ca         1 IRG       0.082600
     19 CAP          2.0410    -0.0010    -1.3010 cp         1 IRG      -0.161500
     20 CAU         -2.7890    -0.0010    -0.1610 cx         1 IRG       0.065500
     21 HNAA         1.7270     0.0010     6.7760 hn         1 IRG       0.267300
     22 HNAB         3.2110    -0.0070     5.8810 hn         1 IRG       0.267300
     23 HAB          3.8890    -0.0010    -4.6820 ha         1 IRG       0.098000
     24 HAC          5.1740    -0.0010    -2.5810 ha         1 IRG       0.101500
     25 HAD          1.4250    -0.0050    -4.6290 ha         1 IRG       0.101500
     26 HAE          4.0020     0.0010    -0.4140 ha         1 IRG       0.122000
     27 HAF          0.2360    -0.0070    -2.4720 ha         1 IRG       0.122000
     28 HAG         -0.4190    -0.0000     5.6980 ha         1 IRG       0.108000
     29 HAH         -1.7170     0.0010     3.6310 ha         1 IRG       0.095000
     30 HAI          3.2410     0.1380     3.4820 ha         1 IRG       0.128000
     31 HAJ         -4.5810     0.9160     0.7840 hc         1 IRG       0.048200
     32 HAJA        -4.5000     1.0770    -1.0860 hc         1 IRG       0.048200
     33 HAK         -4.1520    -1.3560    -1.2800 hc         1 IRG       0.048200
     34 HAKA        -4.2330    -1.5160     0.5900 hc         1 IRG       0.048200
     35 HNAN        -2.5800     0.0200     1.9770 hn         1 IRG       0.293800
     36 HAU         -2.2310     0.1520    -1.0770 h1         1 IRG       0.098700
     37 NAA          2.2100    -0.0010     5.9000 nv         1 IRG      -0.431200
@<TRIPOS>BOND
     1     1     2 ar  
     2     1     6 ar  
     3     2     3 ar  
     4     2    19 1   
     5     3     4 ar  
     6     4     5 ar  
     7     4    14 ar  
     8     5     6 ar  
     9     5    13 ar  
    10     6    17 1   
    11     7     8 ar  
    12     7     9 ar  
    13     7    23 1   
    14     8    10 ar  
    15     8    24 1   
    16     9    11 ar  
    17     9    25 1   
    18    10    19 ar  
    19    10    26 1   
    20    11    19 ar  
    21    11    27 1   
    22    12    13 ar  
    23    12    18 ar  
    24    12    28 1   
    25    13    29 1   
    26    14    18 ar  
    27    14    30 1   
    28    15    16 1   
    29    15    20 1   
    30    15    31 1   
    31    15    32 1   
    32    16    20 1   
    33    16    33 1   
    34    16    34 1   
    35    17    20 1   
    36    17    35 1   
    37    18    37 1   
    38    20    36 1   
    39    21    37 1   
    40    22    37 1   
@<TRIPOS>SUBSTRUCTURE
     1 IRG         1 TEMP              0 ****  ****    0 ROOT
