@<TRIPOS>MOLECULE
molecule
   37    40     1     0     0
SMALL
bcc


@<TRIPOS>ATOM
      1 N1           0.0000     0.0000     0.0000 nb         1 IRG      -0.841000
      2 C2           1.3310     0.0000     0.0000 cp         1 IRG       0.801500
      3 N3           2.0440     0.0000     1.1100 nb         1 IRG      -0.785000
      4 C4           1.4390     0.0010     2.3060 ca         1 IRG       0.528600
      5 C5           0.0210     0.0010     2.3540 ca         1 IRG      -0.374600
      6 C6          -0.6910     0.0000     1.1310 ca         1 IRG       0.767200
      7 CAB          3.3690    -0.0020    -3.7310 ca         1 IRG      -0.113000
      8 CAC          4.0910    -0.0010    -2.5510 ca         1 IRG      -0.147500
      9 CAD          1.9860    -0.0020    -3.7020 ca         1 IRG      -0.147500
     10 CAE          3.4350     0.0000    -1.3370 ca         1 IRG      -0.082500
     11 CAF          1.3190    -0.0070    -2.4940 ca         1 IRG      -0.082500
     12 CAG          0.0920     0.0000     4.7430 ca         1 IRG      -0.209000
     13 CAH         -0.6350     0.0010     3.5900 ca         1 IRG      -0.045000
     14 CAI          2.1660    -0.0010     3.5020 ca         1 IRG      -0.293300
     15 CAJ         -4.2080     0.5720    -0.1730 cx         1 IRG      -0.159400
     16 CAK         -3.9920    -0.9370    -0.2930 cx         1 IRG      -0.159400
     17 NAN         -2.0700     0.0000     1.1160 nu         1 IRG      -0.867900
     18 CAO          1.4920    -0.0000     4.7070 ca         1 IRG       0.234600
     19 CAP          2.0410    -0.0010    -1.3010 cp         1 IRG      -0.143500
     20 CAU         -2.7890    -0.0010    -0.1610 cx         1 IRG       0.187500
     21 HNAA         1.7270     0.0010     6.7760 hn         1 IRG       0.433300
     22 HNAB         3.2110    -0.0070     5.8810 hn         1 IRG       0.433300
     23 HAB          3.8890    -0.0010    -4.6820 ha         1 IRG       0.126000
     24 HAC          5.1740    -0.0010    -2.5810 ha         1 IRG       0.129500
     25 HAD          1.4250    -0.0050    -4.6290 ha         1 IRG       0.129500
     26 HAE          4.0020     0.0010    -0.4140 ha         1 IRG       0.152000
     27 HAF          0.2360    -0.0070    -2.4720 ha         1 IRG       0.152000
     28 HAG         -0.4190    -0.0000     5.6980 ha         1 IRG       0.129000
     29 HAH         -1.7170     0.0010     3.6310 ha         1 IRG       0.120000
     30 HAI          3.2410     0.1380     3.4820 ha         1 IRG       0.150000
     31 HAJ         -4.5810     0.9160     0.7840 hc         1 IRG       0.077700
     32 HAJA        -4.5000     1.0770    -1.0860 hc         1 IRG       0.077700
     33 HAK         -4.1520    -1.3560    -1.2800 hc         1 IRG       0.077700
     34 HAKA        -4.2330    -1.5160     0.5900 hc         1 IRG       0.077700
     35 HNAN        -2.5800     0.0200     1.9770 hn         1 IRG       0.451800
     36 HAU         -2.2310     0.1520    -1.0770 h1         1 IRG       0.126700
     37 NAA          2.2100    -0.0010     5.9000 nv         1 IRG      -0.911200
@<TRIPOS>BOND
     1     1     6 ar
     2     1     2 ar
     3    19     2 1
     4     2     3 ar
     5     3     4 ar
     6     5     4 ar
     7     4    14 ar
     8     6     5 ar
     9     5    13 ar
    10    17     6 1
    11    18    37 1
    12    37    21 1
    13    37    22 1
    14     8     7 ar
    15     7     9 ar
    16     7    23 1
    17     8    10 ar
    18     8    24 1
    19     9    11 ar
    20     9    25 1
    21    10    19 ar
    22    10    26 1
    23    19    11 ar
    24    11    27 1
    25    13    12 ar
    26    12    18 ar
    27    12    28 1
    28    13    29 1
    29    14    18 ar
    30    14    30 1
    31    16    15 1
    32    15    20 1
    33    15    31 1
    34    15    32 1
    35    16    20 1
    36    16    33 1
    37    16    34 1
    38    20    17 1
    39    17    35 1
    40    20    36 1
@<TRIPOS>SUBSTRUCTURE
     1 IRG         1 TEMP              0 ****  ****    0 ROOT
