@<TRIPOS>MOLECULE
molecule
   35    37     1     0     0
SMALL
bcc


@<TRIPOS>ATOM
      1 C01          0.0000     0.0000     0.0000 c3         1 IRH       0.124700
      2 O25          1.4300     0.0000     0.0000 os         1 IRH      -0.310900
      3 C16          2.0460     0.0000     1.2120 ca         1 IRH       0.116100
      4 C15          1.2940    -0.0060     2.3710 ca         1 IRH      -0.178000
      5 C17          3.4380    -0.0000     1.2860 ca         1 IRH       0.102100
      6 O24          4.1760    -0.0000     0.1440 oh         1 IRH      -0.502100
      7 C18          4.0720    -0.0000     2.5210 ca         1 IRH      -0.145000
      8 C19          3.3270    -0.0000     3.6810 ca         1 IRH      -0.092000
      9 C14          1.9310    -0.0060     3.6140 ca         1 IRH      -0.042800
     10 C11          1.1330    -0.0110     4.8540 cc         1 IRH       0.167900
     11 O12          0.1190    -0.8870     4.9680 os         1 IRH      -0.197200
     12 C4          -0.6560    -0.9540     6.0700 ca         1 IRH       0.199100
     13 C5          -1.6930    -1.8710     6.1530 ca         1 IRH      -0.218000
     14 C6          -2.4810    -1.9270     7.2910 ca         1 IRH       0.197100
     15 O29         -3.4950    -2.8280     7.3640 oh         1 IRH      -0.518100
     16 C1          -2.2440    -1.0700     8.3610 ca         1 IRH      -0.281000
     17 C2          -1.2150    -0.1490     8.2980 ca         1 IRH       0.231100
     18 O30         -0.9830     0.6880     9.3390 oh         1 IRH      -0.462100
     19 C3          -0.4140    -0.0870     7.1500 ca         1 IRH      -0.268600
     20 C9           0.6910     0.8780     7.0420 c          1 IRH       0.562900
     21 O13          0.9450     1.6550     7.9490 o          1 IRH      -0.514100
     22 C10          1.4530     0.8690     5.8440 cd         1 IRH      -0.089100
     23 O27          2.4890     1.7360     5.6830 oh         1 IRH      -0.483100
     24 H1          -0.3610     0.8810     0.5170 h1         1 IRH       0.043367
     25 H2          -0.3610     0.0070    -1.0210 h1         1 IRH       0.043367
     26 H3          -0.3610    -0.8880     0.5050 h1         1 IRH       0.043367
     27 H4           0.2120    -0.0100     2.3150 ha         1 IRH       0.148000
     28 H5           4.6060     0.8340     0.0480 ho         1 IRH       0.420000
     29 H6           5.1540     0.0020     2.5740 ha         1 IRH       0.150000
     30 H7           3.8240    -0.0000     4.6440 ha         1 IRH       0.158000
     31 H8          -1.8890    -2.5420     5.3250 ha         1 IRH       0.161000
     32 H9          -3.1820    -3.6200     7.7700 ho         1 IRH       0.432000
     33 H10         -2.8680    -1.1250     9.2450 ha         1 IRH       0.151000
     34 H11         -1.8020     0.9220     9.7440 ho         1 IRH       0.427000
     35 H12          2.1610     2.6190     5.6710 ho         1 IRH       0.425000
@<TRIPOS>BOND
     1    18    17 1
     2    17    16 ar
     3    17    19 ar
     4    16    14 ar
     5    21    20 2
     6    19    20 1
     7    19    12 ar
     8    20    22 1
     9    14    15 1
    10    14    13 ar
    11    12    13 ar
    12    12    11 1
    13    23    22 1
    14    22    10 2
    15    11    10 1
    16    10     9 1
    17     9     4 ar
    18     9     8 ar
    19     4     3 ar
    20     8     7 ar
    21     3     2 1
    22     3     5 ar
    23     2     1 1
    24     7     5 ar
    25     5     6 1
    26     1    24 1
    27     1    25 1
    28     1    26 1
    29     4    27 1
    30     6    28 1
    31     7    29 1
    32     8    30 1
    33    13    31 1
    34    15    32 1
    35    16    33 1
    36    18    34 1
    37    23    35 1
@<TRIPOS>SUBSTRUCTURE
     1 IRH         1 TEMP              0 ****  ****    0 ROOT
