@<TRIPOS>MOLECULE
molecule
   77    81     1     0     0
SMALL
bcc


@<TRIPOS>ATOM
      1 C1           0.0000     0.0000     0.0000 ca         1 IRL      -0.098800
      2 C2           1.3810     0.0000     0.0000 ca         1 IRL      -0.108500
      3 C3           2.0750     0.0000     1.2100 ca         1 IRL      -0.120600
      4 C4           1.3680     0.0010     2.4140 ca         1 IRL      -0.108500
      5 C5          -0.0110     0.0020     2.4000 ca         1 IRL      -0.098800
      6 C6          -0.6940     0.0070     1.1960 ca         1 IRL      -0.115000
      7 C7          -0.7520    -0.0010    -1.3050 c3         1 IRL      -0.043800
      8 C8          -0.7760     0.0020     3.6990 c3         1 IRL      -0.043800
      9 C9           3.5540    -0.0000     1.2170 c          1 IRL       0.684700
     10 N10          4.2220    -0.3310     2.3400 n          1 IRL      -0.455800
     11 C11          5.6820    -0.4440     2.3170 c3         1 IRL       0.041700
     12 C12          6.2820     0.4690     3.3880 c3         1 IRL      -0.050100
     13 C13          5.9880     1.9070     3.0450 ca         1 IRL      -0.062300
     14 C14          4.8300     2.5040     3.5110 ca         1 IRL      -0.121500
     15 C15          4.5560     3.8200     3.2000 ca         1 IRL      -0.112500
     16 C16          5.4480     4.5480     2.4150 cp         1 IRL      -0.051000
     17 C17          6.6130     3.9410     1.9470 ca         1 IRL      -0.112500
     18 C18          6.8790     2.6260     2.2690 ca         1 IRL      -0.121500
     19 C19          5.1580     5.9630     2.0770 cp         1 IRL       0.001000
     20 C20          6.0500     6.6910     1.2920 ca         1 IRL      -0.123500
     21 C21          5.7760     8.0070     0.9810 ca         1 IRL      -0.138000
     22 C22          4.6190     8.6050     1.4470 ca         1 IRL      -0.139000
     23 C23          3.7300     7.8870     2.2270 ca         1 IRL      -0.138000
     24 C24          3.9910     6.5680     2.5390 ca         1 IRL      -0.123500
     25 C25          3.4880    -0.5770     3.5840 c3         1 IRL       0.091300
     26 O26          4.1660     0.2970     0.2100 o          1 IRL      -0.609100
     27 C27          6.0800    -1.8710     2.5930 c          1 IRL       0.653100
     28 O28          5.3000    -2.6230     3.1370 o          1 IRL      -0.614100
     29 N29          7.3030    -2.3110     2.2360 ns         1 IRL      -0.537900
     30 C30          7.6900    -3.6980     2.5050 c3         1 IRL       0.009700
     31 C31          7.2040    -4.5810     1.3850 c          1 IRL       0.882600
     32 C32          9.2140    -3.7930     2.6040 c3         1 IRL      -0.010200
     33 C33          9.6890    -3.0080     3.7990 cc         1 IRL      -0.113400
     34 C34         10.1230    -1.7380     3.7990 cd         1 IRL      -0.136100
     35 N35         10.4700    -1.3640     5.0690 na         1 IRL      -0.194400
     36 C36         10.2630    -2.4110     5.9390 ca         1 IRL      -0.041200
     37 C37          9.7570    -3.4840     5.1830 ca         1 IRL      -0.095800
     38 C38         10.4460    -2.5680     7.3100 ca         1 IRL      -0.161000
     39 C39         10.1370    -3.7710     7.9070 ca         1 IRL      -0.115000
     40 C40          9.6460    -4.8290     7.1550 ca         1 IRL      -0.175000
     41 C41          9.4450    -4.6920     5.8100 ca         1 IRL      -0.056000
     42 O42          6.5960    -4.1010     0.4560 o          1 IRL      -0.835300
     43 O43          7.4450    -5.9010     1.4170 o          1 IRL      -0.835300
     44 H1           1.9220     0.0670    -0.9360 ha         1 IRL       0.163500
     45 H2           1.9000     0.0910     3.3540 ha         1 IRL       0.163500
     46 H3          -1.7770     0.0150     1.1910 ha         1 IRL       0.121000
     47 H4          -0.1310     0.4340    -2.0800 hc         1 IRL       0.039200
     48 H5          -1.6590     0.5820    -1.2000 hc         1 IRL       0.039200
     49 H6          -1.0060    -1.0180    -1.5750 hc         1 IRL       0.039200
     50 H7          -0.3970    -0.7840     4.3410 hc         1 IRL       0.039200
     51 H8          -1.8270    -0.1690     3.4990 hc         1 IRL       0.039200
     52 H9          -0.6530     0.9600     4.1890 hc         1 IRL       0.039200
     53 H10          6.0520    -0.1480     1.3420 h1         1 IRL       0.107700
     54 H11          7.3540     0.3200     3.4310 hc         1 IRL       0.059200
     55 H12          5.8460     0.2310     4.3510 hc         1 IRL       0.059200
     56 H13          4.1380     1.9370     4.1220 ha         1 IRL       0.131000
     57 H14          3.6500     4.2870     3.5660 ha         1 IRL       0.127000
     58 H15          7.3100     4.5030     1.3380 ha         1 IRL       0.127000
     59 H16          7.7840     2.1540     1.9070 ha         1 IRL       0.131000
     60 H17          6.9240     6.2060     0.8740 ha         1 IRL       0.137000
     61 H18          6.4690     8.5740     0.3700 ha         1 IRL       0.124000
     62 H19          4.4080     9.6380     1.2000 ha         1 IRL       0.120000
     63 H20          2.8270     8.3600     2.5930 ha         1 IRL       0.124000
     64 H21          3.1550     6.2990     3.1740 ha         1 IRL       0.137000
     65 H22          3.0450     0.3490     3.9310 h1         1 IRL       0.047033
     66 H23          2.7080    -1.3060     3.4040 h1         1 IRL       0.047033
     67 H24          4.1700    -0.9550     4.3370 h1         1 IRL       0.047033
     68 H25          7.9290    -1.7030     1.7470 hn         1 IRL       0.293500
     69 H26          7.2470    -4.0220     3.4380 h1         1 IRL       0.079700
     70 H27          9.6600    -3.3870     1.7040 hc         1 IRL       0.063700
     71 H28          9.5040    -4.8310     2.7140 hc         1 IRL       0.063700
     72 H29         10.1920    -1.1040     2.9240 h4         1 IRL       0.157000
     73 H30         10.8230    -0.4630     5.3270 hn         1 IRL       0.282700
     74 H31         10.8290    -1.7480     7.9050 ha         1 IRL       0.112000
     75 H32         10.2910    -3.8950     8.9720 ha         1 IRL       0.115000
     76 H33          9.4080    -5.7680     7.6410 ha         1 IRL       0.122000
     77 H34          9.0610    -5.5220     5.2300 ha         1 IRL       0.151000
@<TRIPOS>BOND
     1     8     5 1
     2     5     4 ar
     3     5     6 ar
     4     4     3 ar
     5     6     1 ar
     6     3     9 1
     7     3     2 ar
     8    26     9 2
     9     1     2 ar
    10     1     7 1
    11     9    10 1
    12    25    10 1
    13    10    11 1
    14    12    11 1
    15    12    13 1
    16    18    17 ar
    17    18    13 ar
    18    11    27 1
    19    17    16 ar
    20    13    14 ar
    21    40    41 ar
    22    40    39 ar
    23    41    37 ar
    24    14    15 ar
    25    16    15 ar
    26    16    19 1
    27    32    30 1
    28    32    33 1
    29    30    31 1
    30    30    29 1
    31    42    31 1
    32    37    33 1
    33    37    36 ar
    34    24    19 ar
    35    24    23 ar
    36    39    38 ar
    37    31    43 1
    38    27    29 1
    39    27    28 2
    40    19    20 ar
    41    33    34 2
    42    23    22 ar
    43    36    38 ar
    44    36    35 1
    45    20    21 ar
    46    34    35 1
    47    22    21 ar
    48     2    44 1
    49     4    45 1
    50     6    46 1
    51     7    47 1
    52     7    48 1
    53     7    49 1
    54     8    50 1
    55     8    51 1
    56     8    52 1
    57    11    53 1
    58    12    54 1
    59    12    55 1
    60    14    56 1
    61    15    57 1
    62    17    58 1
    63    18    59 1
    64    20    60 1
    65    21    61 1
    66    22    62 1
    67    23    63 1
    68    24    64 1
    69    25    65 1
    70    25    66 1
    71    25    67 1
    72    29    68 1
    73    30    69 1
    74    32    70 1
    75    32    71 1
    76    34    72 1
    77    35    73 1
    78    38    74 1
    79    39    75 1
    80    40    76 1
    81    41    77 1
@<TRIPOS>SUBSTRUCTURE
     1 IRL         1 TEMP              0 ****  ****    0 ROOT
