@<TRIPOS>MOLECULE
molecule
   14    14     1     0     0
SMALL
bcc


@<TRIPOS>ATOM
      1 OAA          0.0000     0.0000     0.0000 o          1 IRO      -0.786300
      2 CAH          1.2140     0.0000     0.0000 c          1 IRO       0.865800
      3 OAD          1.8880     0.0000     1.1670 o          1 IRO      -0.786300
      4 CAI          1.9550    -0.0050    -1.2830 cc         1 IRO       0.060400
      5 CAJ          3.3140    -0.0100    -1.2900 cd         1 IRO      -0.167400
      6 I            4.3980    -0.0120     0.5030 i          1 IRO      -0.072800
      7 CAL          4.0060    -0.0160    -2.5860 c          1 IRO       0.710700
      8 OAC          5.2210    -0.0210    -2.6400 o          1 IRO      -0.643500
      9 NAG          3.2680    -0.0150    -3.7170 ns         1 IRO      -0.566500
     10 CAK          1.9260    -0.0100    -3.6540 c          1 IRO       0.802500
     11 OAB          1.2860    -0.0100    -4.6880 o          1 IRO      -0.703500
     12 NAF          1.2720    -0.0110    -2.4810 ns         1 IRO      -0.432100
     13 H3           3.7240    -0.0190    -4.6080 hn         1 IRO       0.344500
     14 H2           0.2710    -0.0080    -2.4760 hn         1 IRO       0.372500
@<TRIPOS>BOND
     1     6     5 1
     2     8     7 2
     3     7     5 1
     4     7     9 1
     5     5     4 2
     6     1     2 1
     7     9    10 1
     8     3     2 1
     9     4     2 1
    10     4    12 1
    11    10    12 1
    12    10    11 2
    13     9    13 1
    14    12    14 1
@<TRIPOS>SUBSTRUCTURE
     1 IRO         1 TEMP              0 ****  ****    0 ROOT
