@<TRIPOS>MOLECULE
IRO
   14    14     1     0     0
SMALL
bcc


@<TRIPOS>ATOM
      1 OAA          0.0000     0.0000     0.0000 o          1 IRO      -0.847800
      2 CAH          1.2140     0.0000     0.0000 c          1 IRO       0.966800
      3 OAD          1.8880     0.0000     1.1670 o          1 IRO      -0.847800
      4 CAI          1.9550    -0.0050    -1.2830 cc         1 IRO      -0.129600
      5 CAJ          3.3140    -0.0100    -1.2900 cd         1 IRO      -0.031400
      6 I            4.3980    -0.0120     0.5030 i          1 IRO      -0.150800
      7 CAL          4.0060    -0.0160    -2.5860 c          1 IRO       0.623700
      8 OAC          5.2210    -0.0210    -2.6400 o          1 IRO      -0.687500
      9 NAG          3.2680    -0.0150    -3.7170 ns         1 IRO      -0.141500
     10 CAK          1.9260    -0.0100    -3.6540 c          1 IRO       0.561500
     11 OAB          1.2860    -0.0100    -4.6880 o          1 IRO      -0.762500
     12 NAF          1.2720    -0.0110    -2.4810 ns         1 IRO       0.049900
     13 H3           3.7240    -0.0190    -4.6080 hn         1 IRO       0.188500
     14 H2           0.2710    -0.0080    -2.4760 hn         1 IRO       0.205500
@<TRIPOS>BOND
     1     1     2 1   
     2     2     3 1   
     3     2     4 1   
     4     4     5 2   
     5     4    12 1   
     6     5     6 1   
     7     5     7 1   
     8     7     8 2   
     9     7     9 1   
    10     9    10 1   
    11     9    13 1   
    12    10    11 2   
    13    10    12 1   
    14    12    14 1   
@<TRIPOS>SUBSTRUCTURE
     1 IRO         1 TEMP              0 ****  ****    0 ROOT
