@<TRIPOS>MOLECULE
IRP
   36    36     1     0     0
SMALL
bcc


@<TRIPOS>ATOM
      1 P          -0.5250   -0.2070    0.0740 p5        1 IRP      1.474500
      2 O1P         0.7750   -0.7700   -0.3530 o         1 IRP     -0.851167
      3 O2P        -0.5820    0.8740    1.0920 o         1 IRP     -0.851167
      4 O3P        -1.7940   -0.9340   -0.1900 o         1 IRP     -0.851167
      5 O5'        -0.9790    1.1530   -1.3330 os        1 IRP     -0.401000
      6 C5'        -2.0740    1.6690   -1.0200 c2        1 IRP      0.247000
      7 C4'        -2.6150    2.9050   -1.6840 c3        1 IRP     -0.130000
      8 N4'        -1.8240    3.4760   -2.7810 n3        1 IRP     -0.278000
      9 C3'        -4.0870    2.6770   -2.1880 c3        1 IRP      0.124000
     10 O3'        -4.9820    3.3250   -1.2890 oh        1 IRP     -0.373000
     11 C2'        -4.0890    3.2870   -3.5390 c2        1 IRP     -0.575000
     12 O2'        -5.0430    2.9670   -4.4530 oh        1 IRP     -0.252000
     13 C1'        -2.7260    3.7040   -3.9300 c3        1 IRP      0.105000
     14 C9         -2.1710    3.1330   -5.2700 c3        1 IRP     -0.144000
     15 C8         -1.8030    1.6630   -5.3560 c2        1 IRP     -0.111000
     16 N7         -2.3420    1.0400   -6.3810 n2        1 IRP     -0.100000
     17 C4         -3.1590    3.2230   -6.4250 c2        1 IRP      0.075000
     18 C6         -3.9520    1.6530   -8.2470 c2        1 IRP      0.261000
     19 N1         -6.1920    5.0080   -6.3450 n2        1 IRP     -0.278000
     20 C2         -5.0010    4.6540   -6.4390 c1        1 IRP      0.209000
     21 N3         -3.8070    4.4070   -6.7510 n2        1 IRP     -0.201000
     22 C5         -3.1780    1.9780   -7.0610 c2        1 IRP     -0.247000
     23 H5'1       -3.9460   -0.6620   -0.8940 ha        1 IRP     -0.000500
     24 H5'2       -2.6860    1.2260   -0.1970 h4        1 IRP      0.174000
     25 H4'        -4.5970   -0.5740   -1.0690 ha        1 IRP     -0.000500
     26 HN'4       -2.6430    3.6910   -0.8680 h1        1 IRP      0.126000
     27 H3'        -1.0850    2.8410   -3.0290 hn        1 IRP      0.145000
     28 HO'3       -4.3780    1.5920   -2.1400 h1        1 IRP      0.079000
     29 H2'        -5.1810    4.1840   -1.6780 ho        1 IRP      0.198000
     30 HO'2       -4.8490    2.0670   -4.7860 ho        1 IRP      0.100000
     31 H1'        -2.6990    4.8250   -4.1110 h1        1 IRP      0.057000
     32 H8         -1.2520    3.7350   -5.5200 hc        1 IRP      0.126000
     33 H7         -1.1450    1.1680   -4.6330 h4        1 IRP      0.186000
     34 H1         -4.7170    2.4240   -8.5090 h4        1 IRP      0.068000
     35 H2         -6.4860    5.4160   -5.4840 hn        1 IRP      0.216000
     36 O6         -3.8230    0.6460   -8.9520 o         1 IRP     -0.328000
@<TRIPOS>BOND
     1    1    2 1   
     2    1    3 1   
     3    1    4 1   
     4    1    5 1   
     5    5    6 1   
     6    6    7 1   
     7    6   24 1   
     8    7    8 1   
     9    7    9 1   
    10    7   26 1   
    11    8   13 1   
    12    8   27 1   
    13    9   10 1   
    14    9   11 1   
    15    9   28 1   
    16   10   29 1   
    17   11   12 1   
    18   11   13 1   
    19   12   30 1   
    20   13   14 1   
    21   13   31 1   
    22   14   15 1   
    23   14   17 1   
    24   14   32 1   
    25   15   16 1   
    26   15   33 1   
    27   16   22 1   
    28   17   21 1   
    29   17   22 1   
    30   18   22 1   
    31   18   34 1   
    32   18   36 1   
    33   19   20 1   
    34   19   35 1   
    35   20   21 1   
    36   23   25 1   
@<TRIPOS>SUBSTRUCTURE
     1 IRP         1 TEMP              0 ****  ****    0 ROOT
