@<TRIPOS>MOLECULE
IRS
   15    14     1     0     0
SMALL
bcc


@<TRIPOS>ATOM
      1 N1           0.0000     0.0000     0.0000 nz         1 IRS       0.079400
      2 C1           1.4690     0.0000     0.0000 c3         1 IRS       0.024000
      3 C2           1.9720     0.0000     1.4200 c2         1 IRS      -0.253400
      4 C3           2.1160     1.3000     2.1690 c3         1 IRS       0.067100
      5 C4           2.2830    -1.1300     2.0060 c2         1 IRS      -0.035000
      6 H1          -0.3340    -0.1880    -0.9250 hn         1 IRS       0.223800
      7 H2           1.8300    -0.8840    -0.5110 hx         1 IRS       0.084200
      8 H3           1.8310     0.8840    -0.5110 hx         1 IRS       0.084200
      9 H4           1.9650     2.1280     1.4880 hc         1 IRS       0.023367
     10 H5           3.1090     1.3620     2.5980 hc         1 IRS       0.023367
     11 H6           1.3780     1.3450     2.9610 hc         1 IRS       0.023367
     12 H7           2.1800    -2.0650     1.4680 ha         1 IRS       0.104500
     13 H8           2.6440    -1.1290     3.0270 ha         1 IRS       0.104500
     14 H9          -0.3340    -0.7070     0.6250 hn         1 IRS       0.223800
     15 H13         -0.3340     0.8950     0.3000 hn         1 IRS       0.223800
@<TRIPOS>BOND
     1     1     2 1   
     2     1     6 1   
     3     1    14 1   
     4     1    15 1   
     5     2     3 1   
     6     2     7 1   
     7     2     8 1   
     8     3     4 1   
     9     3     5 2   
    10     4     9 1   
    11     4    10 1   
    12     4    11 1   
    13     5    12 1   
    14     5    13 1   
@<TRIPOS>SUBSTRUCTURE
     1 IRS         1 TEMP              0 ****  ****    0 ROOT
