@<TRIPOS>MOLECULE
molecule
   15    14     1     0     0
SMALL
bcc


@<TRIPOS>ATOM
      1 N1           0.0000     0.0000     0.0000 nz         1 IRS      -0.809600
      2 C1           1.4690     0.0000     0.0000 c3         1 IRS       0.146000
      3 C2           1.9720     0.0000     1.4200 c2         1 IRS      -0.229400
      4 C3           2.1160     1.3000     2.1690 c3         1 IRS      -0.057900
      5 C4           2.2830    -1.1300     2.0060 c2         1 IRS      -0.117000
      6 H1          -0.3340    -0.7070     0.6250 hn         1 IRS       0.456133
      7 H2           1.8300    -0.8840    -0.5110 hx         1 IRS       0.113700
      8 H3           1.8310     0.8840    -0.5110 hx         1 IRS       0.113700
      9 H4           1.9630     2.1280     1.4880 hc         1 IRS       0.062033
     10 H5           3.1100     1.3630     2.5960 hc         1 IRS       0.062033
     11 H6           1.3790     1.3440     2.9620 hc         1 IRS       0.062033
     12 H7           2.6440    -1.1290     3.0270 ha         1 IRS       0.143500
     13 H8           2.1800    -2.0650     1.4680 ha         1 IRS       0.143500
     14 H9          -0.3340    -0.1870    -0.9250 hn         1 IRS       0.456133
     15 H13         -0.3340     0.8950     0.3000 hn         1 IRS       0.456133
@<TRIPOS>BOND
     1     1     2 1
     2     1     6 1
     3     2     3 1
     4     2     7 1
     5     2     8 1
     6     3     4 1
     7     3     5 2
     8     4     9 1
     9     4    10 1
    10     4    11 1
    11     5    12 1
    12     5    13 1
    13     1    14 1
    14    15     1 1
@<TRIPOS>SUBSTRUCTURE
     1 IRS         1 TEMP              0 ****  ****    0 ROOT
