@<TRIPOS>MOLECULE
IS1
   76    81     1     0     0
SMALL
bcc


@<TRIPOS>ATOM
      1 CAM          0.0000     0.0000     0.0000 ca         1 IS1      -0.070000
      2 CAI          1.3800     0.0000     0.0000 ca         1 IS1      -0.106000
      3 CAH          2.0740     0.0000     1.1970 ca         1 IS1      -0.081000
      4 CAJ          1.3910    -0.0010     2.4010 ca         1 IS1      -0.106000
      5 CAN          0.0120    -0.0020     2.4140 ca         1 IS1      -0.070000
      6 CBE         -0.6950    -0.0010     1.2110 ca         1 IS1      -0.128000
      7 CBC         -2.1740    -0.0010     1.2170 c2         1 IS1       0.287000
      8 OAB         -2.7790    -0.8170     1.8860 o          1 IS1      -0.401000
      9 NBK         -2.8510     0.9040     0.4840 n          1 IS1      -0.008000
     10 CAY         -2.1370     1.8430    -0.3920 c3         1 IS1      -0.080000
     11 CAW         -2.5770     3.2690    -0.0490 c3         1 IS1      -0.121500
     12 CAX         -4.3170     0.9660     0.5400 c3         1 IS1      -0.080000
     13 CAV         -4.7380     2.4010     0.8750 c3         1 IS1      -0.121500
     14 CBF         -4.1020     3.3640    -0.1370 c3         1 IS1      -0.093000
     15 CAU         -4.5420     4.7970     0.1720 c3         1 IS1      -0.102000
     16 CAS         -6.0520     4.9220    -0.0360 c3         1 IS1      -0.108000
     17 CAR         -6.4920     6.3540     0.2730 c3         1 IS1      -0.119000
     18 CAT         -8.0030     6.4800     0.0640 c3         1 IS1      -0.071000
     19 NAZ         -8.4250     7.8510     0.3590 n7         1 IS1       0.014000
     20 CBB         -9.7220     8.1970     0.2440 c3         1 IS1       0.288000
     21 OAA        -10.5430     7.3710    -0.1070 o          1 IS1      -0.383000
     22 CAF        -10.1430     9.5680     0.5390 c2         1 IS1      -0.160000
     23 CAG        -11.4410     9.9140     0.4230 c2         1 IS1       0.071000
     24 CBD        -11.8650    11.2920     0.7200 c3         1 IS1       0.098000
     25 CAP        -13.2070    11.6640     0.6040 c2         1 IS1      -0.352000
     26 CAL        -10.9290    12.2540     1.1300 c2         1 IS1      -0.125000
     27 CAK        -11.3800    13.5340     1.3970 c2         1 IS1      -0.001000
     28 CAO        -12.7250    13.8230     1.2520 c2         1 IS1      -0.302000
     29 NBL        -13.5850    12.8980     0.8700 n3         1 IS1       0.677000
     30 C1'        -15.0000    13.2530     0.7360 c3         1 IS1      -0.058000
     31 O4'        -15.1350    14.5790     0.1830 os         1 IS1      -0.232000
     32 C4'        -16.4640    15.0110     0.5490 c3         1 IS1       0.049000
     33 C5'        -16.5640    16.5370     0.4860 c3         1 IS1       0.078000
     34 O5'        -16.4310    16.9670    -0.8700 oh         1 IS1      -0.308000
     35 C3'        -16.6520    14.5190     2.0000 c3         1 IS1       0.034000
     36 O3'        -17.9940    14.0770     2.2100 oh         1 IS1      -0.265000
     37 C2'        -15.6660    13.3360     2.1270 c3         1 IS1       0.020000
     38 O2'        -16.3710    12.1260     2.4180 oh         1 IS1      -0.266000
     39 HAM         -0.5430     0.0000    -0.9380 ha         1 IS1       0.113500
     40 HAI          1.9210     0.0010    -0.9390 ha         1 IS1       0.107500
     41 HAH          3.1570     0.0000     1.1920 ha         1 IS1       0.105000
     42 HAJ          1.9410    -0.0020     3.3340 ha         1 IS1       0.107500
     43 HAN         -0.5220    -0.0030     3.3570 ha         1 IS1       0.113500
     44 HAY         -1.0700     1.7450    -0.2350 h1         1 IS1       0.076750
     45 HAYA        -2.3780     1.6280    -1.4260 h1         1 IS1       0.076750
     46 HAW         -2.2580     3.5120     0.9570 hc         1 IS1       0.063750
     47 HAWA        -2.1320     3.9620    -0.7530 hc         1 IS1       0.063750
     48 HAX         -4.6790     0.2940     1.3090 h1         1 IS1       0.076750
     49 HAXA        -4.7290     0.6830    -0.4210 h1         1 IS1       0.076750
     50 HAV         -5.8170     2.4820     0.8200 hc         1 IS1       0.063750
     51 HAVA        -4.4000     2.6520     1.8730 hc         1 IS1       0.063750
     52 HBF         -4.4200     3.0940    -1.1370 hc         1 IS1       0.073000
     53 HAU         -4.2980     5.0350     1.2000 hc         1 IS1       0.058000
     54 HAUA        -4.0270     5.4830    -0.4900 hc         1 IS1       0.058000
     55 HAS         -6.2960     4.6830    -1.0640 hc         1 IS1       0.065000
     56 HASA        -6.5660     4.2360     0.6260 hc         1 IS1       0.065000
     57 HAR         -5.9780     7.0400    -0.3900 hc         1 IS1       0.058500
     58 HARA        -6.2480     6.5930     1.3010 hc         1 IS1       0.058500
     59 HAT         -8.2470     6.2400    -0.9640 h1         1 IS1       0.076500
     60 HATA        -8.5170     5.7930     0.7270 h1         1 IS1       0.076500
     61 HNAZ        -7.7460     8.5370     0.6240 hn         1 IS1       0.098000
     62 HAF        -10.2750     8.7290     1.2110 DU         1 IS1       0.121000
     63 HAG        -11.3090    10.7530    -0.2500 DU         1 IS1       0.059000
     64 HAP        -13.9430    10.9320     0.2930 h4         1 IS1       0.190000
     65 HAL         -9.8810    12.0010     1.2360 ha         1 IS1       0.155000
     66 HAK        -10.6860    14.3030     1.7140 ha         1 IS1       0.147000
     67 HAO        -13.0800    14.8260     1.4600 h4         1 IS1       0.183000
     68 H1'        -15.5180    12.5330     0.1150 h2         1 IS1       0.132000
     69 H4'        -17.2000    14.5520    -0.1010 h1         1 IS1       0.106000
     70 H5'        -15.7740    16.9750     1.0830 h1         1 IS1       0.039000
     71 H5'A       -17.5260    16.8520     0.8720 h1         1 IS1       0.039000
     72 HO5'       -16.5640    17.9000    -0.9190 ho         1 IS1       0.206000
     73 H3'        -16.3910    15.3040     2.7010 h1         1 IS1       0.064000
     74 HO3'       -18.3460    14.4920     2.9800 ho         1 IS1       0.203000
     75 H2'        -14.9240    13.5430     2.8890 h1         1 IS1       0.055000
     76 HO2'       -16.1600    11.8410     3.2920 ho         1 IS1       0.205000
@<TRIPOS>BOND
     1     1     2 1   
     2     1     6 1   
     3     1    39 1   
     4     2     3 1   
     5     2    40 1   
     6     3     4 1   
     7     3    41 1   
     8     4     5 1   
     9     4    42 1   
    10     5     6 1   
    11     5    43 1   
    12     6     7 1   
    13     7     8 1   
    14     7     9 1   
    15     9    10 1   
    16     9    12 1   
    17    10    11 1   
    18    10    44 1   
    19    10    45 1   
    20    11    14 1   
    21    11    46 1   
    22    11    47 1   
    23    12    13 1   
    24    12    48 1   
    25    12    49 1   
    26    13    14 1   
    27    13    50 1   
    28    13    51 1   
    29    14    15 1   
    30    14    52 1   
    31    15    16 1   
    32    15    53 1   
    33    15    54 1   
    34    16    17 1   
    35    16    55 1   
    36    16    56 1   
    37    17    18 1   
    38    17    57 1   
    39    17    58 1   
    40    18    19 1   
    41    18    59 1   
    42    18    60 1   
    43    19    20 1   
    44    19    61 1   
    45    20    21 1   
    46    20    22 1   
    47    20    62 1   
    48    22    23 1   
    49    22    62 1   
    50    23    24 1   
    51    23    63 1   
    52    24    25 1   
    53    24    26 1   
    54    24    63 1   
    55    25    29 1   
    56    25    64 1   
    57    26    27 1   
    58    26    65 1   
    59    27    28 1   
    60    27    66 1   
    61    28    29 1   
    62    28    67 1   
    63    29    30 1   
    64    30    31 1   
    65    30    37 1   
    66    30    68 1   
    67    31    32 1   
    68    32    33 1   
    69    32    35 1   
    70    32    69 1   
    71    33    34 1   
    72    33    70 1   
    73    33    71 1   
    74    34    72 1   
    75    35    36 1   
    76    35    37 1   
    77    35    73 1   
    78    36    74 1   
    79    37    38 1   
    80    37    75 1   
    81    38    76 1   
@<TRIPOS>SUBSTRUCTURE
     1 IS1         1 TEMP              0 ****  ****    0 ROOT
