@<TRIPOS>MOLECULE
molecule
   76    79     1     0     0
SMALL
bcc


@<TRIPOS>ATOM
      1 CAM          0.0000     0.0000     0.0000 ca         1 IS1      -0.096000
      2 CAI          1.3800     0.0000     0.0000 ca         1 IS1      -0.134000
      3 CAH          2.0740     0.0000     1.1970 ca         1 IS1      -0.109000
      4 CAJ          1.3910    -0.0010     2.4010 ca         1 IS1      -0.134000
      5 CAN          0.0120    -0.0020     2.4140 ca         1 IS1      -0.096000
      6 CBE         -0.6950    -0.0010     1.2110 ca         1 IS1      -0.139600
      7 CBC         -2.1740    -0.0010     1.2170 c          1 IS1       0.677700
      8 OAB         -2.7790    -0.8170     1.8860 o          1 IS1      -0.600100
      9 NBK         -2.8510     0.9040     0.4840 n          1 IS1      -0.487800
     10 CAY         -2.1370     1.8430    -0.3920 c3         1 IS1       0.100000
     11 CAW         -2.5770     3.2690    -0.0490 c3         1 IS1      -0.095400
     12 CAX         -4.3170     0.9660     0.5400 c3         1 IS1       0.100000
     13 CAV         -4.7380     2.4010     0.8750 c3         1 IS1      -0.095400
     14 CBF         -4.1020     3.3640    -0.1370 c3         1 IS1      -0.071700
     15 CAU         -4.5420     4.7970     0.1720 c3         1 IS1      -0.077400
     16 CAS         -6.0520     4.9220    -0.0360 c3         1 IS1      -0.079400
     17 CAR         -6.4920     6.3540     0.2730 c3         1 IS1      -0.102400
     18 CAT         -8.0030     6.4800     0.0640 c3         1 IS1       0.108000
     19 NAZ         -8.4250     7.8510     0.3590 ns         1 IS1      -0.565900
     20 CBB         -9.7220     8.1970     0.2440 c          1 IS1       0.647300
     21 OAA        -10.5430     7.3710    -0.1070 o          1 IS1      -0.587100
     22 CAF        -10.1430     9.5680     0.5390 ce         1 IS1      -0.152200
     23 CAG        -11.4410     9.9140     0.4230 cf         1 IS1      -0.098200
     24 CBD        -11.8650    11.2920     0.7200 ca         1 IS1      -0.047800
     25 CAP        -13.2070    11.6640     0.6040 ca         1 IS1      -0.035300
     26 CAL        -10.9290    12.2540     1.1300 ca         1 IS1      -0.030000
     27 CAK        -11.3800    13.5340     1.3970 ca         1 IS1      -0.131000
     28 CAO        -12.7250    13.8230     1.2520 ca         1 IS1      -0.040300
     29 NBL        -13.5850    12.8980     0.8700 na         1 IS1       0.081900
     30 C1'        -15.0000    13.2530     0.7360 c3         1 IS1       0.182800
     31 O4'        -15.1350    14.5790     0.1830 os         1 IS1      -0.391600
     32 C4'        -16.4640    15.0110     0.5490 c3         1 IS1       0.130100
     33 C5'        -16.5640    16.5370     0.4860 c3         1 IS1       0.150400
     34 O5'        -16.4310    16.9670    -0.8700 oh         1 IS1      -0.594800
     35 C3'        -16.6520    14.5190     2.0000 c3         1 IS1       0.107100
     36 O3'        -17.9940    14.0770     2.2100 oh         1 IS1      -0.555800
     37 C2'        -15.6660    13.3360     2.1270 c3         1 IS1       0.084100
     38 O2'        -16.3710    12.1260     2.4180 oh         1 IS1      -0.557800
     39 HAM         -0.5430     0.0000    -0.9380 ha         1 IS1       0.141000
     40 HAI          1.9210     0.0010    -0.9390 ha         1 IS1       0.136000
     41 HAH          3.1570     0.0000     1.1920 ha         1 IS1       0.134000
     42 HAJ          1.9410    -0.0020     3.3340 ha         1 IS1       0.136000
     43 HAN         -0.5220    -0.0030     3.3570 ha         1 IS1       0.141000
     44 HAY         -2.3780     1.6280    -1.4260 h1         1 IS1       0.061700
     45 HAYA        -1.0700     1.7450    -0.2350 h1         1 IS1       0.061700
     46 HAW         -2.2580     3.5120     0.9570 hc         1 IS1       0.050950
     47 HAWA        -2.1320     3.9620    -0.7530 hc         1 IS1       0.050950
     48 HAX         -4.6790     0.2940     1.3090 h1         1 IS1       0.061700
     49 HAXA        -4.7290     0.6830    -0.4210 h1         1 IS1       0.061700
     50 HAV         -4.4000     2.6520     1.8730 hc         1 IS1       0.050950
     51 HAVA        -5.8170     2.4820     0.8200 hc         1 IS1       0.050950
     52 HBF         -4.4200     3.0940    -1.1370 hc         1 IS1       0.053700
     53 HAU         -4.0270     5.4830    -0.4900 hc         1 IS1       0.044200
     54 HAUA        -4.2980     5.0350     1.2000 hc         1 IS1       0.044200
     55 HAS         -6.2960     4.6830    -1.0640 hc         1 IS1       0.050700
     56 HASA        -6.5660     4.2360     0.6260 hc         1 IS1       0.050700
     57 HAR         -6.2480     6.5930     1.3010 hc         1 IS1       0.046700
     58 HARA        -5.9780     7.0400    -0.3900 hc         1 IS1       0.046700
     59 HAT         -8.2470     6.2400    -0.9640 h1         1 IS1       0.063200
     60 HATA        -8.5170     5.7930     0.7270 h1         1 IS1       0.063200
     61 HNAZ        -7.7500     8.5320     0.6460 hn         1 IS1       0.315500
     62 HAF         -9.4120    10.3040     0.8500 ha         1 IS1       0.126000
     63 HAG        -12.1720     9.1780     0.1120 ha         1 IS1       0.187000
     64 HAP        -13.9430    10.9320     0.2930 h4         1 IS1       0.215000
     65 HAL         -9.8810    12.0010     1.2360 ha         1 IS1       0.184000
     66 HAK        -10.6860    14.3030     1.7140 ha         1 IS1       0.193000
     67 HAO        -13.0800    14.8260     1.4600 h4         1 IS1       0.213000
     68 H1'        -15.5180    12.5330     0.1150 h2         1 IS1       0.131700
     69 H4'        -17.2000    14.5520    -0.1010 h1         1 IS1       0.108700
     70 H5'        -17.5260    16.8520     0.8720 h1         1 IS1       0.040700
     71 H5'A       -15.7740    16.9750     1.0830 h1         1 IS1       0.040700
     72 HO5'       -16.5830    17.8970    -0.9210 ho         1 IS1       0.423000
     73 H3'        -16.3910    15.3040     2.7010 h1         1 IS1       0.061700
     74 HO3'       -18.3310    14.4580     3.0040 ho         1 IS1       0.422000
     75 H2'        -14.9240    13.5430     2.8890 h1         1 IS1       0.053700
     76 HO2'       -16.1460    11.8320     3.2850 ho         1 IS1       0.424000
@<TRIPOS>BOND
     1     1     2 ar
     2     1     6 ar
     3     2     3 ar
     4     3     4 ar
     5     4     5 ar
     6     5     6 ar
     7     6     7 1
     8     7     8 2
     9     7     9 1
    10     9    10 1
    11     9    12 1
    12    10    11 1
    13    11    14 1
    14    12    13 1
    15    13    14 1
    16    14    15 1
    17    15    16 1
    18    16    17 1
    19    17    18 1
    20    18    19 1
    21    19    20 1
    22    20    21 2
    23    20    22 1
    24    22    23 2
    25    23    24 1
    26    24    25 ar
    27    24    26 ar
    28    25    29 2
    29    26    27 ar
    30    27    28 ar
    31    28    29 1
    32    29    30 1
    33    30    31 1
    34    30    37 1
    35    31    32 1
    36    32    33 1
    37    32    35 1
    38    33    34 1
    39    35    36 1
    40    35    37 1
    41    37    38 1
    42     1    39 1
    43     2    40 1
    44     3    41 1
    45     4    42 1
    46     5    43 1
    47    10    44 1
    48    10    45 1
    49    11    46 1
    50    11    47 1
    51    12    48 1
    52    12    49 1
    53    13    50 1
    54    13    51 1
    55    14    52 1
    56    15    53 1
    57    15    54 1
    58    16    55 1
    59    16    56 1
    60    17    57 1
    61    17    58 1
    62    18    59 1
    63    18    60 1
    64    19    61 1
    65    22    62 1
    66    23    63 1
    67    25    64 1
    68    26    65 1
    69    27    66 1
    70    28    67 1
    71    30    68 1
    72    32    69 1
    73    33    70 1
    74    33    71 1
    75    34    72 1
    76    35    73 1
    77    36    74 1
    78    37    75 1
    79    38    76 1
@<TRIPOS>SUBSTRUCTURE
     1 IS1         1 TEMP              0 ****  ****    0 ROOT
