@<TRIPOS>MOLECULE
IS2
   25    25     1     0     0
SMALL
bcc


@<TRIPOS>ATOM
      1 C1           0.0000     0.0000     0.0000 ca         1 IS2      -0.199300
      2 C2           1.3820     0.0000     0.0000 ca         1 IS2      -0.090500
      3 C3           2.0750     0.0000     1.1950 ca         1 IS2      -0.159500
      4 C4           1.3820    -0.0010     2.3970 ca         1 IS2      -0.020400
      5 C5          -0.0060    -0.0000     2.3940 ca         1 IS2      -0.159500
      6 C6          -0.6930     0.0050     1.1960 ca         1 IS2      -0.090500
      7 N11          2.0810    -0.0020     3.6090 ns         1 IS2      -0.094100
      8 C12          3.2210    -0.7060     3.7280 c          1 IS2       0.672100
      9 O13          3.5880    -1.4260     2.8230 o          1 IS2      -0.684100
     10 P14          4.2110    -0.5840     5.2440 p5         1 IS2       0.362500
     11 O15          5.5090    -1.5260     5.1160 o          1 IS2      -0.718167
     12 O16          4.6740     0.9420     5.4600 o          1 IS2      -0.718167
     13 O17          3.3970    -1.0200     6.4000 o          1 IS2      -0.718167
     14 C18         -0.7540     0.0010    -1.3050 c3         1 IS2       0.054900
     15 C19         -1.0080    -1.4400    -1.7480 c3         1 IS2       0.004900
     16 H2           1.9230    -0.0020    -0.9390 ha         1 IS2       0.076000
     17 H3           3.1580    -0.0000     1.1930 ha         1 IS2       0.123000
     18 H5          -0.5500     0.0010     3.3310 ha         1 IS2       0.123000
     19 H6          -1.7770     0.0050     1.1930 ha         1 IS2       0.076000
     20 H11          1.7410     0.5350     4.3820 hn         1 IS2       0.191500
     21 H181        -1.7010     0.5120    -1.1750 hc         1 IS2      -0.005800
     22 H182        -0.1690     0.5130    -2.0600 hc         1 IS2      -0.005800
     23 H191        -0.0640    -1.9170    -1.9850 hc         1 IS2      -0.006967
     24 H192        -1.6430    -1.4410    -2.6260 hc         1 IS2      -0.006967
     25 H193        -1.4970    -1.9830    -0.9480 hc         1 IS2      -0.006967
@<TRIPOS>BOND
     1     1     2 ar  
     2     1     6 ar  
     3     1    14 1   
     4     2     3 ar  
     5     2    16 1   
     6     3     4 ar  
     7     3    17 1   
     8     4     5 ar  
     9     4     7 1   
    10     5     6 ar  
    11     5    18 1   
    12     6    19 1   
    13     7     8 1   
    14     7    20 1   
    15     8     9 2   
    16     8    10 1   
    17    10    11 1   
    18    10    12 1   
    19    10    13 1   
    20    14    15 1   
    21    14    21 1   
    22    14    22 1   
    23    15    23 1   
    24    15    24 1   
    25    15    25 1   
@<TRIPOS>SUBSTRUCTURE
     1 IS2         1 TEMP              0 ****  ****    0 ROOT
