@<TRIPOS>MOLECULE
IS3
   26    25     1     0     0
SMALL
bcc


@<TRIPOS>ATOM
      1 O           1.2460   -0.1200   -0.1150 os        1 IS3     -0.817800
      2 C1          3.8120    1.5590    0.0220 c3        1 IS3      0.207400
      3 O1          2.8280    1.5000    1.0040 os        1 IS3     -0.588200
      4 P1          2.1270    0.0220    1.2700 p5        1 IS3      1.585800
      5 C2          3.4700    2.6410   -0.9990 c3        1 IS3     -0.105400
      6 O2          1.2130    0.1990    2.4100 o         1 IS3     -0.867500
      7 P2          0.4470   -0.3220   -1.4940 p5        1 IS3      1.478800
      8 C3          4.4560    2.6630   -2.1570 c3        1 IS3     -0.053700
      9 O3          3.2330   -0.9530    1.2190 o         1 IS3     -0.867500
     10 C4          4.2980    1.4290   -3.0220 c3        1 IS3     -0.096600
     11 O4         -0.0360   -1.7000   -1.6310 o         1 IS3     -0.827500
     12 C5          4.2470    3.9140   -2.9860 c3        1 IS3     -0.096600
     13 O5          1.1510    0.3810   -2.5750 o         1 IS3     -0.827500
     14 S6         -1.3840    0.9440   -0.9990 sh        1 IS3     -0.773200
     15 H1          3.9190    0.5580   -0.4820 h1        1 IS3      0.011200
     16 H1A         4.7970    1.8230    0.5090 h1        1 IS3      0.011200
     17 H2          3.4680    3.6360   -0.4850 hc        1 IS3      0.053200
     18 H2A         2.4350    2.4610   -1.3940 hc        1 IS3      0.053200
     19 H4          4.7510    0.5420   -2.5160 hc        1 IS3      0.031200
     20 H4A         3.2110    1.2060   -3.1950 hc        1 IS3      0.031200
     21 H4B         4.8090    1.5710   -4.0060 hc        1 IS3      0.031200
     22 H5          3.2170    3.9190   -3.4170 hc        1 IS3      0.031200
     23 H5A         4.9840    3.9590   -3.8240 hc        1 IS3      0.031200
     24 H11         5.5030    2.6870   -1.7410 hc        1 IS3      0.009700
     25 H12         4.3730    4.8280   -2.3570 hc        1 IS3      0.031200
     26 H14        -1.1800    1.0530    0.3070 hs        1 IS3      0.323800
@<TRIPOS>BOND
     1    1    4 1   
     2    1    7 1   
     3    2    3 1   
     4    2    5 1   
     5    2   15 1   
     6    2   16 1   
     7    3    4 1   
     8    4    6 1   
     9    4    9 1   
    10    5    8 1   
    11    5   17 1   
    12    5   18 1   
    13    7   11 1   
    14    7   13 1   
    15    7   14 1   
    16    8   10 1   
    17    8   12 1   
    18    8   24 1   
    19   10   19 1   
    20   10   20 1   
    21   10   21 1   
    22   12   22 1   
    23   12   23 1   
    24   12   25 1   
    25   14   26 1   
@<TRIPOS>SUBSTRUCTURE
     1 IS3         1 TEMP              0 ****  ****    0 ROOT
