@<TRIPOS>MOLECULE
molecule
   26    25     1     0     0
SMALL
bcc


@<TRIPOS>ATOM
      1 O            0.0000     0.0000     0.0000 os         1 IS3      -0.702800
      2 C1           3.5310     1.5530    -1.0180 c3         1 IS3       0.232400
      3 O1           2.1470     1.3150    -0.7600 os         1 IS3      -0.611200
      4 P1           1.6110     0.0000     0.0000 p5         1 IS3       1.433800
      5 C2           3.6910     2.8870    -1.7520 c3         1 IS3      -0.087400
      6 O2           2.1470     0.0000     1.5180 o          1 IS3      -0.835000
      7 P2          -1.1180    -1.1190     0.2990 p5         1 IS3       1.235800
      8 C3           5.1740     3.1430    -2.0280 c3         1 IS3      -0.078700
      9 O3           2.1040    -1.2080    -0.6980 o          1 IS3      -0.835000
     10 C4           5.7020     2.0820    -2.9960 c3         1 IS3      -0.086600
     11 O4          -0.9580    -1.6170     1.6840 o          1 IS3      -0.753000
     12 C5           5.3450     4.5300    -2.6500 c3         1 IS3      -0.086600
     13 O5          -0.9450    -2.3410    -0.7330 o          1 IS3      -0.753000
     14 S6          -3.0460    -0.2690     0.0720 sh         1 IS3      -0.710200
     15 H1           4.0730     1.5900    -0.0800 h1         1 IS3       0.022700
     16 H1A          3.9270     0.7530    -1.6320 h1         1 IS3       0.022700
     17 H2           3.2950     3.6870    -1.1380 hc         1 IS3       0.041700
     18 H2A          3.1500     2.8500    -2.6900 hc         1 IS3       0.041700
     19 H4           4.9540     1.8790    -3.7530 hc         1 IS3       0.025700
     20 H4A          6.6060     2.4440    -3.4700 hc         1 IS3       0.025700
     21 H4B          5.9210     1.1720    -2.4510 hc         1 IS3       0.025700
     22 H5           6.3930     4.7070    -2.8560 hc         1 IS3       0.025700
     23 H5A          4.9800     5.2820    -1.9600 hc         1 IS3       0.025700
     24 H11          5.7290     3.0920    -1.0990 hc         1 IS3       0.045700
     25 H12          4.7810     4.5840    -3.5730 hc         1 IS3       0.025700
     26 H14         -3.9150    -0.9370     0.8220 hs         1 IS3       0.310800
@<TRIPOS>BOND
     1     1     4 1
     2     1     7 1
     3     2     3 1
     4     2     5 1
     5     2    15 1
     6     2    16 1
     7     3     4 1
     8     4     6 1
     9     4     9 1
    10     5     8 1
    11     5    17 1
    12     5    18 1
    13     7    11 1
    14     7    13 1
    15     7    14 1
    16     8    10 1
    17     8    12 1
    18    10    19 1
    19    10    20 1
    20    10    21 1
    21    12    22 1
    22    12    23 1
    23     8    24 1
    24    12    25 1
    25    14    26 1
@<TRIPOS>SUBSTRUCTURE
     1 IS3         1 TEMP              0 ****  ****    0 ROOT
