@<TRIPOS>MOLECULE
IS8
    4     3     1     0     0
SMALL
bcc


@<TRIPOS>ATOM
      1 S            0.0000     0.0000     0.0000 s          1 IS8      -0.334900
      2 C            1.5530     0.0000     0.0000 c1         1 IS8       0.442300
      3 N            2.8040     0.0000     0.0220 n2         1 IS8      -0.486800
      4 H1           3.2890     0.0000     0.8970 hn         1 IS8       0.380400
@<TRIPOS>BOND
     1     1     2 2   
     2     2     3 2   
     3     3     4 1   
@<TRIPOS>SUBSTRUCTURE
     1 IS8         1 TEMP              0 ****  ****    0 ROOT
