@<TRIPOS>MOLECULE
molecule
   21    21     1     0     0
SMALL
bcc


@<TRIPOS>ATOM
      1 I            0.0000     0.0000     0.0000 i          1 ISA      -0.223900
      2 CZ           2.0950     0.0000     0.0000 ca         1 ISA       0.044900
      3 CE1          2.7870     0.0000     1.1970 ca         1 ISA      -0.108000
      4 CD1          4.1680     0.0020     1.1960 ca         1 ISA      -0.118500
      5 CE2          2.7860     0.0020    -1.1980 ca         1 ISA      -0.108000
      6 CD2          4.1680     0.0090    -1.1970 ca         1 ISA      -0.118500
      7 CG           4.8590     0.0030    -0.0010 ca         1 ISA      -0.042300
      8 C4           6.3660     0.0040    -0.0010 c3         1 ISA      -0.014100
      9 C3           6.8770    -1.4370    -0.0010 c3         1 ISA      -0.025600
     10 S3           6.2750    -2.2920     1.4790 sh         1 ISA      -0.476900
     11 C2           8.3850    -1.4350    -0.0020 c          1 ISA       0.895600
     12 O3           8.9870    -0.5290     0.5210 o          1 ISA      -0.831300
     13 O2           9.0570    -2.4410    -0.5830 o          1 ISA      -0.831300
     14 HE1          2.2460    -0.0010     2.1350 ha         1 ISA       0.127500
     15 HD1          4.7100    -0.0000     2.1340 ha         1 ISA       0.144000
     16 HE2          2.2450     0.0070    -2.1360 ha         1 ISA       0.127500
     17 HD2          4.7100     0.0100    -2.1350 ha         1 ISA       0.144000
     18 H41          6.7270     0.5150     0.8830 hc         1 ISA       0.069700
     19 H42          6.7270     0.5150    -0.8860 hc         1 ISA       0.069700
     20 H3           6.5160    -1.9480    -0.8860 h1         1 ISA       0.057700
     21 HS3          6.3850    -3.6040     1.3080 hs         1 ISA       0.216800
@<TRIPOS>BOND
     1     1     2 1
     2     2     3 ar
     3     2     5 ar
     4     3     4 ar
     5     3    14 1
     6     4     7 ar
     7     4    15 1
     8     5     6 ar
     9     5    16 1
    10     6     7 ar
    11     6    17 1
    12     7     8 1
    13     8     9 1
    14     8    18 1
    15     8    19 1
    16     9    10 1
    17     9    11 1
    18     9    20 1
    19    10    21 1
    20    11    12 1
    21    11    13 1
@<TRIPOS>SUBSTRUCTURE
     1 ISA         1 TEMP              0 ****  ****    0 ROOT
