@<TRIPOS>MOLECULE
ISA
   21    21     1     0     0
SMALL
bcc


@<TRIPOS>ATOM
      1 I           0.0680    0.5560   -0.4280 i         1 ISA     -0.194900
      2 CZ          2.0490    0.2680   -0.1280 ca        1 ISA      0.007900
      3 CE1         2.5390    0.0790    1.1630 ca        1 ISA     -0.104000
      4 CD1         3.9040   -0.1140    1.3710 ca        1 ISA     -0.134500
      5 CE2         2.9270    0.2570   -1.2120 ca        1 ISA     -0.104000
      6 CD2         4.2900    0.0640   -1.0040 ca        1 ISA     -0.134500
      7 CG          4.7950   -0.1210    0.2910 ca        1 ISA     -0.021300
      8 C4          6.2580   -0.2970    0.5010 c3        1 ISA     -0.038100
      9 C3          6.7850   -1.6070   -0.0460 c3        1 ISA     -0.058600
     10 S3          6.5710   -2.8960    1.1760 sh        1 ISA     -0.533900
     11 C2          8.2470   -1.4240   -0.5450 c         1 ISA      0.916600
     12 O3          8.4450   -0.4740   -1.3510 o         1 ISA     -0.823300
     13 O2          9.1350   -2.2250   -0.1470 o         1 ISA     -0.823300
     14 HE1         1.8560    0.0770    2.0260 ha        1 ISA      0.129000
     15 HD1         4.2850   -0.2750    2.3910 ha        1 ISA      0.148000
     16 HE2         2.5510    0.4000   -2.2370 ha        1 ISA      0.129000
     17 HD2         4.9880    0.0520   -1.8570 ha        1 ISA      0.148000
     18 H41         6.7980    0.5410   -0.0300 hc        1 ISA      0.072200
     19 H42         6.5040   -0.2230    1.5940 hc        1 ISA      0.072200
     20 H3          6.1880   -1.9210   -0.9390 h1        1 ISA      0.064700
     21 HS3         7.8410   -3.3280    1.2200 hs        1 ISA      0.282800
@<TRIPOS>BOND
     1    1    2 1   
     2    2    3 ar  
     3    2    5 ar  
     4    3    4 ar  
     5    3   14 1   
     6    4    7 ar  
     7    4   15 1   
     8    5    6 ar  
     9    5   16 1   
    10    6    7 ar  
    11    6   17 1   
    12    7    8 1   
    13    8    9 1   
    14    8   18 1   
    15    8   19 1   
    16    9   10 1   
    17    9   11 1   
    18    9   20 1   
    19   10   21 1   
    20   11   12 1   
    21   11   13 1   
@<TRIPOS>SUBSTRUCTURE
     1 ISA         1 TEMP              0 ****  ****    0 ROOT
