@<TRIPOS>MOLECULE
molecule
   13    12     1     0     0
SMALL
bcc


@<TRIPOS>ATOM
      1 CA           0.0000     0.0000     0.0000 c3         1 ISB      -0.177700
      2 C            1.5050     0.0000     0.0000 c          1 ISB       0.894600
      3 O1           2.1100     0.0000     1.0460 o          1 ISB      -0.856300
      4 O2           2.1780    -0.0030    -1.1610 o          1 ISB      -0.856300
      5 CB1         -0.5110     0.0030     1.4400 c3         1 ISB      -0.064600
      6 CB2         -0.5090     1.2480    -0.7250 c3         1 ISB      -0.064600
      7 HCA         -0.3610    -0.8860    -0.5090 hc         1 ISB       0.032700
      8 HB11        -0.1390    -0.8730     1.9580 hc         1 ISB       0.015200
      9 HB12        -0.1620     0.8960     1.9460 hc         1 ISB       0.015200
     10 HB13        -1.5940    -0.0110     1.4400 hc         1 ISB       0.015200
     11 HB21        -1.5870     1.3070    -0.6280 hc         1 ISB       0.015200
     12 HB22        -0.0590     2.1290    -0.2850 hc         1 ISB       0.015200
     13 HB23        -0.2430     1.1900    -1.7730 hc         1 ISB       0.015200
@<TRIPOS>BOND
     1     1     2 1
     2     1     5 1
     3     1     6 1
     4     1     7 1
     5     2     3 1
     6     2     4 1
     7     5     8 1
     8     5     9 1
     9     5    10 1
    10     6    11 1
    11     6    12 1
    12     6    13 1
@<TRIPOS>SUBSTRUCTURE
     1 ISB         1 TEMP              0 ****  ****    0 ROOT
