@<TRIPOS>MOLECULE
ISB
   13    12     1     0     0
SMALL
bcc


@<TRIPOS>ATOM
      1 CA         -0.0000    0.0650   -0.0650 c3        1 ISB     -0.193700
      2 C           1.5500    0.0560   -0.0390 c         1 ISB      0.914600
      3 O1          2.1460    0.8940    0.6970 o         1 ISB     -0.849800
      4 O2          2.1420   -0.7950   -0.7630 o         1 ISB     -0.849800
      5 CB1        -0.5340   -0.2230    1.3180 c3        1 ISB     -0.064100
      6 CB2        -0.4940    1.4000   -0.5680 c3        1 ISB     -0.064100
      7 HCA        -0.3400   -0.7430   -0.7670 hc        1 ISB      0.029700
      8 HB11       -0.2400   -1.2520    1.6370 hc        1 ISB      0.012700
      9 HB12       -1.6490   -0.1490    1.3440 hc        1 ISB      0.012700
     10 HB13       -0.1060    0.5070    2.0470 hc        1 ISB      0.012700
     11 HB21       -1.6090    1.4600   -0.5260 hc        1 ISB      0.012700
     12 HB22       -0.0650    2.2210    0.0580 hc        1 ISB      0.012700
     13 HB23       -0.1700    1.5570   -1.6240 hc        1 ISB      0.012700
@<TRIPOS>BOND
     1    1    2 1   
     2    1    5 1   
     3    1    6 1   
     4    1    7 1   
     5    2    3 1   
     6    2    4 1   
     7    5    8 1   
     8    5    9 1   
     9    5   10 1   
    10    6   11 1   
    11    6   12 1   
    12    6   13 1   
@<TRIPOS>SUBSTRUCTURE
     1 ISB         1 TEMP              0 ****  ****    0 ROOT
