@<TRIPOS>MOLECULE
molecule
   24    24     1     0     0
SMALL
bcc


@<TRIPOS>ATOM
      1 C            0.0000     0.0000     0.0000 c          1 ISC       0.886800
      2 C1           1.4180     0.0000     0.0000 ce         1 ISC      -0.099400
      3 O1          -0.6080    -0.0000    -1.0530 o          1 ISC      -0.858300
      4 C2           2.1720     0.0000     1.3030 c3         1 ISC       0.190300
      5 O2          -0.6740    -0.0060     1.1690 o          1 ISC      -0.858300
      6 C3           3.4530    -0.8220     1.1620 c3         1 ISC       0.152300
      7 O3           2.5060     1.3430     1.6590 oh         1 ISC      -0.609800
      8 C4           4.2120    -0.3880    -0.0620 c2         1 ISC      -0.199200
      9 C5           3.5580    -0.0020    -1.1600 cf         1 ISC      -0.116000
     10 C6           2.0950    -0.0060    -1.1720 cf         1 ISC      -0.142000
     11 C1'          3.7570    -4.5440     1.4340 c          1 ISC       0.897800
     12 O1'          4.7040    -5.4350     1.7940 o          1 ISC      -0.830800
     13 O2'          2.6460    -4.9280     1.1290 o          1 ISC      -0.830800
     14 C3'          5.2930    -2.6820     1.7460 c2         1 ISC      -0.402000
     15 O3'          3.1180    -2.2060     1.0470 os         1 ISC      -0.281900
     16 H2           1.5510    -0.4370     2.0750 h1         1 ISC       0.086700
     17 H3           4.0720    -0.6700     2.0380 h1         1 ISC       0.031700
     18 HO3          2.3360     1.4770     2.5760 ho         1 ISC       0.382000
     19 H4           5.2950    -0.3880    -0.0530 ha         1 ISC       0.101000
     20 H5           4.1070     0.2190    -2.0670 ha         1 ISC       0.090000
     21 H6           1.5610     0.1160    -2.1070 ha         1 ISC       0.137000
     22 H3'          5.5240    -1.6240     1.7290 ha         1 ISC       0.104500
     23 H3'A         6.0500    -3.3970     2.0430 ha         1 ISC       0.104500
     24 C2'          4.0720    -3.1040     1.4100 ce         1 ISC       0.062900
@<TRIPOS>BOND
     1     1     2 1
     2     1     3 1
     3     1     5 1
     4     2     4 1
     5     2    10 2
     6     4     6 1
     7     4     7 1
     8     6     8 1
     9     6    15 1
    10     8     9 2
    11     9    10 1
    12    11    12 1
    13    11    24 1
    14    11    13 1
    15    24    14 2
    16    24    15 1
    17     4    16 1
    18     6    17 1
    19     7    18 1
    20     8    19 1
    21     9    20 1
    22    10    21 1
    23    14    22 1
    24    14    23 1
@<TRIPOS>SUBSTRUCTURE
     1 ISC         1 TEMP              0 ****  ****    0 ROOT
