@<TRIPOS>MOLECULE
ISC
   24    23     1     0     0
SMALL
bcc


@<TRIPOS>ATOM
      1 C          -0.1270    1.5910   -0.7750 c2        1 ISC      0.371000
      2 C1          0.7430    1.0380    0.3580 c2        1 ISC     -0.130000
      3 O1          0.3650    2.4540   -1.5510 o         1 ISC     -0.566500
      4 C2          0.1480    1.3040    1.7010 c3        1 ISC      0.027000
      5 O2         -1.3200    1.1770   -0.8350 o         1 ISC     -0.566500
      6 C3          4.5230   -2.1270    0.1860 c1        1 ISC     -0.044000
      7 O3          0.8970    0.8530    2.8210 oh        1 ISC     -0.369000
      8 C4          3.1400   -1.6960   -0.2010 c3        1 ISC     -0.194000
      9 C5          2.9890   -0.2300   -0.0190 c2        1 ISC     -0.121000
     10 C6          1.8530    0.3820    0.1730 c1        1 ISC     -0.179000
     11 C1'         5.8130   -5.3950    1.0370 c2        1 ISC      0.371000
     12 O1'         6.5690   -5.9710    1.8700 o         1 ISC     -0.557500
     13 O2'         5.1430   -5.9850    0.1500 o         1 ISC     -0.557500
     14 C3'         6.7580   -3.0850    1.5400 c2        1 ISC     -0.287000
     15 O3'         4.5170   -3.3410    0.7160 os        1 ISC     -0.131000
     16 H2         -0.8710    0.8260    1.7370 h1        1 ISC      0.087500
     17 H3          0.0400    2.4130    1.8540 h1        1 ISC      0.087500
     18 HO3         1.4000    0.0790    2.5440 ho        1 ISC      0.206000
     19 H4          3.0380   -1.9410   -1.2980 hc        1 ISC      0.098500
     20 H5          2.3270   -2.2560    0.3340 hc        1 ISC      0.098500
     21 H6          3.9290    0.3480   -0.0750 ha        1 ISC      0.131000
     22 H3'         6.6930   -1.9910    1.5420 ha        1 ISC      0.115500
     23 H3'A        7.6900   -3.5350    1.9020 ha        1 ISC      0.115500
     24 C2'         5.7650   -3.8700    1.1110 c2        1 ISC     -0.007000
@<TRIPOS>BOND
     1    1    2 1   
     2    1    3 1   
     3    1    5 1   
     4    2    4 1   
     5    2   10 1   
     6    4    7 1   
     7    4   16 1   
     8    4   17 1   
     9    6    8 1   
    10    6   15 1   
    11    7   18 1   
    12    8    9 1   
    13    8   19 1   
    14    8   20 1   
    15    9   10 1   
    16    9   21 1   
    17   11   12 1   
    18   11   13 1   
    19   11   24 1   
    20   14   22 1   
    21   14   23 1   
    22   14   24 1   
    23   15   24 1   
@<TRIPOS>SUBSTRUCTURE
     1 ISC         1 TEMP              0 ****  ****    0 ROOT
