@<TRIPOS>MOLECULE
molecule
   20    20     1     0     0
SMALL
bcc


@<TRIPOS>ATOM
      1 O6           0.0000     0.0000     0.0000 o          1 ISD      -0.548500
      2 C5           1.2170     0.0000     0.0000 c          1 ISD       0.708800
      3 C4           2.0530     0.0000     1.1950 ce         1 ISD      -0.080100
      4 O8           1.5990     0.0010     2.4790 oh         1 ISD      -0.463100
      5 C3           3.3470    -0.0020     0.8210 c2         1 ISD       0.062900
      6 O7           4.4230    -0.0020     1.6370 oh         1 ISD      -0.458100
      7 O1           1.9890    -0.0070    -1.1030 os         1 ISD      -0.372900
      8 C2           3.3600    -0.0020    -0.6900 c3         1 ISD       0.153300
      9 C9           4.0640    -1.2570    -1.2090 c3         1 ISD       0.153100
     10 O11          5.4100    -1.2810    -0.7300 oh         1 ISD      -0.591800
     11 C13          4.0680    -1.2440    -2.7390 c3         1 ISD       0.115400
     12 O14          4.6210    -2.4690    -3.2240 oh         1 ISD      -0.613800
     13 HO8          1.1850     0.8280     2.6650 ho         1 ISD       0.424000
     14 HO7          4.5420     0.8600     2.0000 ho         1 ISD       0.432000
     15 H2           3.8550     0.8890    -1.0570 h1         1 ISD       0.101700
     16 H9           3.5390    -2.1370    -0.8560 h1         1 ISD       0.062700
     17 HO11         5.6760    -2.1740    -0.5850 ho         1 ISD       0.426000
     18 H131         4.6660    -0.4130    -3.0920 h1         1 ISD       0.038700
     19 H132         3.0530    -1.1380    -3.1020 h1         1 ISD       0.038700
     20 HO14         4.5440    -2.4990    -4.1630 ho         1 ISD       0.411000
@<TRIPOS>BOND
     1     1     2 2
     2     2     3 1
     3     2     7 1
     4     3     4 1
     5     3     5 2
     6     4    13 1
     7     5     6 1
     8     5     8 1
     9     6    14 1
    10     7     8 1
    11     8     9 1
    12     8    15 1
    13     9    10 1
    14     9    11 1
    15     9    16 1
    16    10    17 1
    17    11    12 1
    18    11    18 1
    19    11    19 1
    20    12    20 1
@<TRIPOS>SUBSTRUCTURE
     1 ISD         1 TEMP              0 ****  ****    0 ROOT
