@<TRIPOS>MOLECULE
ISD
   20    20     1     0     0
SMALL
bcc


@<TRIPOS>ATOM
      1 O6          0.5130    0.9870   -0.8610 o         1 ISD     -0.557500
      2 C5          1.5870    0.6340   -0.3940 c         1 ISD      0.711800
      3 C4          2.0130    0.1690    0.9420 ce        1 ISD     -0.128100
      4 O8          1.2090   -0.0070    2.0310 oh        1 ISD     -0.473100
      5 C3          3.3530   -0.0800    0.8980 c2        1 ISD      0.058900
      6 O7          4.2070   -0.5300    1.8430 oh        1 ISD     -0.450100
      7 O1          2.6940    0.6500   -1.2380 os        1 ISD     -0.402900
      8 C2          3.8780    0.2340   -0.4910 c3        1 ISD      0.180300
      9 C9          4.5660   -0.9570   -1.1670 c3        1 ISD      0.147100
     10 O11         5.6740   -0.4140   -1.8690 oh        1 ISD     -0.600800
     11 C13         3.6350   -1.7110   -2.1200 c3        1 ISD      0.095400
     12 O14         4.4170   -2.7610   -2.6690 oh        1 ISD     -0.614800
     13 HO8         0.3470    0.3800    1.8040 ho        1 ISD      0.445000
     14 HO7         3.7010   -0.6320    2.6690 ho        1 ISD      0.448000
     15 H2          4.5710    1.1220   -0.4790 h1        1 ISD      0.126700
     16 H9          4.9470   -1.6580   -0.3690 h1        1 ISD      0.071700
     17 HO11        6.0310   -1.1270   -2.4170 ho        1 ISD      0.429000
     18 H131        2.7620   -2.1330   -1.5580 h1        1 ISD      0.049700
     19 H132        3.2700   -1.0260   -2.9300 h1        1 ISD      0.049700
     20 HO14        3.8910   -3.1600   -3.3720 ho        1 ISD      0.414000
@<TRIPOS>BOND
     1    1    2 2   
     2    2    3 1   
     3    2    7 1   
     4    3    4 1   
     5    3    5 2   
     6    4   13 1   
     7    5    6 1   
     8    5    8 1   
     9    6   14 1   
    10    7    8 1   
    11    8    9 1   
    12    8   15 1   
    13    9   10 1   
    14    9   11 1   
    15    9   16 1   
    16   10   17 1   
    17   11   12 1   
    18   11   18 1   
    19   11   19 1   
    20   12   20 1   
@<TRIPOS>SUBSTRUCTURE
     1 ISD         1 TEMP              0 ****  ****    0 ROOT
