@<TRIPOS>MOLECULE
ISE
   22    22     1     0     0
SMALL
bcc


@<TRIPOS>ATOM
      1 C1         -0.0300    0.0340    0.0560 c3        1 ISE      0.008600
      2 O1         -0.5680   -0.1860   -1.2370 oh        1 ISE     -0.591300
      3 C2          1.4770    0.0700    0.0710 c         1 ISE      0.516100
      4 O2          2.1530    0.0720   -0.9610 o         1 ISE     -0.514100
      5 C3          2.0950    0.1020    1.4470 c3        1 ISE      0.008600
      6 O3          3.5080    0.1100    1.4330 oh        1 ISE     -0.591300
      7 C4          1.5900   -1.1070    2.2510 c3        1 ISE      0.120600
      8 O4          2.0520   -1.0360    3.5890 oh        1 ISE     -0.589300
      9 C5          0.0530   -1.1210    2.3370 c3        1 ISE      0.152100
     10 O5         -0.3610   -2.3310    2.9470 oh        1 ISE     -0.580800
     11 C6         -0.5890   -1.1040    0.9400 c3        1 ISE      0.120600
     12 O6         -1.9710   -0.8730    1.1400 oh        1 ISE     -0.589300
     13 H1         -0.4180    1.0260    0.4340 h1        1 ISE      0.099700
     14 HO1         0.0840    0.1100   -1.8900 ho        1 ISE      0.427500
     15 H3          1.8060    1.0580    1.9740 h1        1 ISE      0.099700
     16 HO3         3.8040   -0.3850    0.6550 ho        1 ISE      0.427500
     17 H4          1.9600   -2.0620    1.7820 h1        1 ISE      0.066200
     18 HO4         3.0060   -0.8830    3.5480 ho        1 ISE      0.425500
     19 H5         -0.3060   -0.2410    2.9380 h1        1 ISE      0.069700
     20 HO5        -0.0070   -2.3160    3.8470 ho        1 ISE      0.423000
     21 H6         -0.4270   -2.0930    0.4290 h1        1 ISE      0.066200
     22 HO6        -2.3920   -0.9750    0.2760 ho        1 ISE      0.425500
@<TRIPOS>BOND
     1    1    2 1   
     2    1    3 1   
     3    1   11 1   
     4    1   13 1   
     5    2   14 1   
     6    3    4 2   
     7    3    5 1   
     8    5    6 1   
     9    5    7 1   
    10    5   15 1   
    11    6   16 1   
    12    7    8 1   
    13    7    9 1   
    14    7   17 1   
    15    8   18 1   
    16    9   10 1   
    17    9   11 1   
    18    9   19 1   
    19   10   20 1   
    20   11   12 1   
    21   11   21 1   
    22   12   22 1   
@<TRIPOS>SUBSTRUCTURE
     1 ISE         1 TEMP              0 ****  ****    0 ROOT
