@<TRIPOS>MOLECULE
molecule
   22    22     1     0     0
SMALL
bcc


@<TRIPOS>ATOM
      1 C1           0.0000     0.0000     0.0000 c3         1 ISE       0.036600
      2 O1          -0.4790    -0.2090    -1.3300 oh         1 ISE      -0.577300
      3 C2           1.5120     0.0000     0.0000 c          1 ISE       0.510100
      4 O2           2.1320     0.0010    -1.0360 o          1 ISE      -0.462100
      5 C3           2.2290     0.0000     1.3330 c3         1 ISE       0.036600
      6 O3           3.6280    -0.2040     1.1260 oh         1 ISE      -0.577300
      7 C4           1.6600    -1.1340     2.1910 c3         1 ISE       0.119100
      8 O4           2.2340    -1.0760     3.5000 oh         1 ISE      -0.582300
      9 C5           0.1420    -0.9840     2.2920 c3         1 ISE       0.130100
     10 O5          -0.3780    -1.9910     3.1630 oh         1 ISE      -0.566800
     11 C6          -0.4920    -1.1320     0.9080 c3         1 ISE       0.119100
     12 O6          -1.9150    -1.0720     1.0250 oh         1 ISE      -0.582300
     13 H1          -0.3620     0.9490     0.3770 h1         1 ISE       0.069200
     14 HO1         -0.7740     0.6110    -1.6910 ho         1 ISE       0.415000
     15 H3           2.0650     0.9480     1.8310 h1         1 ISE       0.069200
     16 HO3          4.0820     0.6170     1.2170 ho         1 ISE       0.415000
     17 H4           1.8970    -2.0860     1.7310 h1         1 ISE       0.050700
     18 HO4          2.7820    -1.8310     3.6360 ho         1 ISE       0.415000
     19 H5          -0.0940    -0.0040     2.6890 h1         1 ISE       0.102700
     20 HO5         -0.1740    -2.8430     2.8160 ho         1 ISE       0.395000
     21 H6          -0.2010    -2.0840     0.4810 h1         1 ISE       0.050700
     22 HO6         -2.2960    -1.8250     0.6040 ho         1 ISE       0.415000
@<TRIPOS>BOND
     1    11     1 1
     2     3     1 1
     3     1     2 1
     4     1    13 1
     5     2    14 1
     6     5     3 1
     7     3     4 2
     8     6     5 1
     9     7     5 1
    10     5    15 1
    11     6    16 1
    12     8     7 1
    13     9     7 1
    14     7    17 1
    15     8    18 1
    16    10     9 1
    17     9    11 1
    18     9    19 1
    19    10    20 1
    20    11    12 1
    21    11    21 1
    22    12    22 1
@<TRIPOS>SUBSTRUCTURE
     1 ISE         1 TEMP              0 ****  ****    0 ROOT
