@<TRIPOS>MOLECULE
ISF
   29    30     1     0     0
SMALL
bcc


@<TRIPOS>ATOM
      1 S1          0.2110   -0.4610   -0.1600 ss        1 ISF      0.238200
      2 C2          1.7690    0.0810    0.0460 cc        1 ISF     -0.222700
      3 C3          2.1250    0.0790    1.3940 cd        1 ISF     -0.119000
      4 C4          1.0620   -0.3840    2.2120 cd        1 ISF     -0.137000
      5 C5         -0.0520   -0.7160    1.4500 cc        1 ISF     -0.090200
      6 I1         -1.7680   -1.4090    2.1760 i         1 ISF     -0.096900
      7 C6          2.6850    0.4770   -1.0310 c         1 ISF      0.628300
      8 O7          3.8740    0.7330   -0.7870 o         1 ISF     -0.554100
      9 C8          2.1330    0.5080   -2.3970 ca        1 ISF     -0.213600
     10 C9          2.9390    0.0930   -3.4650 ca        1 ISF     -0.101500
     11 C10         2.4380    0.0880   -4.7630 ca        1 ISF     -0.143000
     12 C11         1.1290    0.5140   -5.0270 ca        1 ISF      0.022700
     13 C12         0.3280    0.9420   -3.9540 ca        1 ISF     -0.143000
     14 C13         0.8230    0.9390   -2.6570 ca        1 ISF     -0.101500
     15 C14         0.5920    0.5170   -6.4150 c3        1 ISF     -0.179400
     16 C15         0.4360    1.9300   -6.9340 c3        1 ISF     -0.061100
     17 C16        -0.7960   -0.2010   -6.4890 c         1 ISF      0.923600
     18 O17        -1.7750    0.3300   -5.8940 o         1 ISF     -0.829300
     19 O18        -0.8490   -1.2610   -7.1660 o         1 ISF     -0.829300
     20 H3          3.1040    0.3910    1.7660 ha        1 ISF      0.166000
     21 H4          1.1310   -0.4620    3.2990 ha        1 ISF      0.152000
     22 H9          3.9710   -0.2300   -3.2640 ha        1 ISF      0.124000
     23 H10         3.0730   -0.2600   -5.5910 ha        1 ISF      0.161500
     24 H12        -0.7160    1.2410   -4.1740 ha        1 ISF      0.161500
     25 H13         0.1850    1.3040   -1.8360 ha        1 ISF      0.124000
     26 H14         1.2950   -0.0480   -7.0870 hc        1 ISF      0.049700
     27 H151        0.1050    1.9000   -8.0000 hc        1 ISF      0.023367
     28 H152        1.3990    2.4920   -6.8740 hc        1 ISF      0.023367
     29 H153       -0.3400    2.4690   -6.3380 hc        1 ISF      0.023367
@<TRIPOS>BOND
     1    1    2 1   
     2    1    5 1   
     3    2    3 2   
     4    2    7 1   
     5    3    4 1   
     6    3   20 1   
     7    4    5 2   
     8    4   21 1   
     9    5    6 1   
    10    7    8 2   
    11    7    9 1   
    12    9   10 ar  
    13    9   14 ar  
    14   10   11 ar  
    15   10   22 1   
    16   11   12 ar  
    17   11   23 1   
    18   12   13 ar  
    19   12   15 1   
    20   13   14 ar  
    21   13   24 1   
    22   14   25 1   
    23   15   16 1   
    24   15   17 1   
    25   15   26 1   
    26   16   27 1   
    27   16   28 1   
    28   16   29 1   
    29   17   18 1   
    30   17   19 1   
@<TRIPOS>SUBSTRUCTURE
     1 ISF         1 TEMP              0 ****  ****    0 ROOT
