@<TRIPOS>MOLECULE
molecule
   29    30     1     0     0
SMALL
bcc


@<TRIPOS>ATOM
      1 S1           0.0000     0.0000     0.0000 ss         1 ISF      -0.018800
      2 C2           1.7840     0.0000     0.0000 cc         1 ISF      -0.085700
      3 C3           2.0700     0.0000     1.3600 cd         1 ISF      -0.129000
      4 C4           1.0040     0.0090     2.2210 cd         1 ISF      -0.161000
      5 C5          -0.2600     0.0060     1.7150 cc         1 ISF       0.064800
      6 I1          -2.0770     0.0070     2.7550 i          1 ISF      -0.111900
      7 C6           2.7060    -0.0040    -1.1350 c          1 ISF       0.634300
      8 O7           3.9010    -0.1430    -0.9490 o          1 ISF      -0.547100
      9 C8           2.1870     0.1620    -2.5090 ca         1 ISF      -0.209600
     10 C9           3.0350    -0.0090    -3.6050 ca         1 ISF      -0.086500
     11 C10          2.5440     0.1470    -4.8840 ca         1 ISF      -0.125000
     12 C11          1.2130     0.4720    -5.0840 ca         1 ISF       0.026700
     13 C12          0.3690     0.6480    -4.0020 ca         1 ISF      -0.125000
     14 C13          0.8460     0.4900    -2.7180 ca         1 ISF      -0.086500
     15 C14          0.6840     0.6390    -6.4840 c3         1 ISF      -0.150400
     16 C15          0.1430     2.0600    -6.6580 c3         1 ISF      -0.060100
     17 C16         -0.4230    -0.3520    -6.7250 c          1 ISF       0.894600
     18 O17         -0.7490    -1.1190    -5.8490 o          1 ISF      -0.837300
     19 O18         -1.0480    -0.3870    -7.9130 o          1 ISF      -0.837300
     20 H3           3.0910     0.0010     1.7230 ha         1 ISF       0.158000
     21 H4           1.1660     0.0120     3.2920 ha         1 ISF       0.139000
     22 H9           4.0770    -0.2620    -3.4500 ha         1 ISF       0.123000
     23 H10          3.2010     0.0130    -5.7350 ha         1 ISF       0.141500
     24 H12         -0.6710     0.9020    -4.1640 ha         1 ISF       0.141500
     25 H13          0.1830     0.6280    -1.8720 ha         1 ISF       0.123000
     26 H14          1.4840     0.4680    -7.1950 hc         1 ISF       0.051700
     27 H151        -0.8170     2.1440    -6.1620 hc         1 ISF       0.024700
     28 H152         0.0250     2.2750    -7.7130 hc         1 ISF       0.024700
     29 H153         0.8380     2.7670    -6.2210 hc         1 ISF       0.024700
@<TRIPOS>BOND
     1     1     2 1
     2     1     5 1
     3     2     3 2
     4     2     7 1
     5     3     4 1
     6     3    20 1
     7     4     5 2
     8     4    21 1
     9     5     6 1
    10     7     8 2
    11     7     9 1
    12     9    10 ar
    13     9    14 ar
    14    10    11 ar
    15    10    22 1
    16    11    12 ar
    17    11    23 1
    18    12    13 ar
    19    12    15 1
    20    13    14 ar
    21    13    24 1
    22    14    25 1
    23    15    16 1
    24    15    17 1
    25    15    26 1
    26    16    27 1
    27    16    28 1
    28    16    29 1
    29    17    18 1
    30    17    19 1
@<TRIPOS>SUBSTRUCTURE
     1 ISF         1 TEMP              0 ****  ****    0 ROOT
