@<TRIPOS>MOLECULE
molecule
   50    52     1     0     0
SMALL
bcc


@<TRIPOS>ATOM
      1 C1           0.0000     0.0000     0.0000 ca         1 ISH      -0.148000
      2 C2           1.3740     0.0000     0.0000 ca         1 ISH      -0.059000
      3 C3           2.0750     0.0000     1.2070 ca         1 ISH       0.102400
      4 C4           1.3610     0.0040     2.4170 ca         1 ISH      -0.046200
      5 C5          -0.0230     0.0060     2.4010 ca         1 ISH      -0.183300
      6 C6          -0.7150    -0.0020     1.2010 ca         1 ISH       0.125100
      7 N7           3.3980    -0.0020     1.5230 nc         1 ISH      -0.666100
      8 C8           3.5390    -0.0010     2.8250 cd         1 ISH       0.670700
      9 N9           2.3120     0.0030     3.4250 na         1 ISH      -0.188300
     10 C10         -1.0550     0.0200     3.5120 c3         1 ISH      -0.058100
     11 C11         -2.3400     0.4190     2.7490 c3         1 ISH       0.145100
     12 O12         -2.0620    -0.0220     1.4090 os         1 ISH      -0.292900
     13 CA1          2.0500     0.0070     4.8660 c3         1 ISH       0.051300
     14 CA2         -3.5580    -0.3120     3.3180 c3         1 ISH       0.164800
     15 CB1          1.9560    -1.4350     5.3710 c3         1 ISH      -0.108400
     16 CD1          1.5670    -2.8580     8.8290 c3         1 ISH       0.150600
     17 CE1          0.4180    -3.4950     6.7940 c3         1 ISH       0.150600
     18 CG1          1.6820    -1.4310     6.8760 c3         1 ISH       0.162800
     19 CG2         -5.9050    -0.7620     2.9290 c3         1 ISH       0.149600
     20 CG3         -5.0700     1.5070     2.7960 c3         1 ISH       0.149600
     21 NP1          4.7470    -0.0030     3.4910 nv         1 ISH      -0.969800
     22 NP2          1.5910    -2.8150     7.3610 n3         1 ISH      -0.729600
     23 NP3         -4.7600     0.0870     2.5750 n3         1 ISH      -0.719600
     24 H1          -0.5350     0.0090    -0.9420 ha         1 ISH       0.143000
     25 H2           1.9150     0.0000    -0.9390 ha         1 ISH       0.147000
     26 H10         -1.1600    -0.9630     3.9540 hc         1 ISH       0.053700
     27 H11         -2.4820     1.4930     2.7750 h1         1 ISH       0.061700
     28 HA1          2.8570     0.5170     5.3780 h1         1 ISH       0.055700
     29 HA2         -3.4130    -1.3810     3.2240 h1         1 ISH       0.044200
     30 HB1          2.8890    -1.9480     5.1750 hc         1 ISH       0.065700
     31 HD1          1.5410    -3.8890     9.1600 h1         1 ISH       0.033533
     32 HE1         -0.4230    -2.8130     6.7800 h1         1 ISH       0.033533
     33 HG1          0.7490    -0.9170     7.0730 h1         1 ISH       0.031200
     34 HG2         -6.7630    -0.4790     2.3320 h1         1 ISH       0.032867
     35 HG3         -6.1330     1.6690     2.6670 h1         1 ISH       0.032867
     36 HNP1         4.7700     0.0970     4.4860 hn         1 ISH       0.449300
     37 H10A        -0.8060     0.7640     4.2590 hc         1 ISH       0.053700
     38 HA1A         1.1170     0.5200     5.0620 h1         1 ISH       0.055700
     39 HA2A        -3.6770    -0.0540     4.3640 h1         1 ISH       0.044200
     40 HB1A         1.1490    -1.9450     4.8590 hc         1 ISH       0.065700
     41 HD1A         2.4550    -2.3750     9.2190 h1         1 ISH       0.033533
     42 HD1B         0.6860    -2.3410     9.1910 h1         1 ISH       0.033533
     43 HE1A         0.6400    -3.8160     5.7840 h1         1 ISH       0.033533
     44 HE1B         0.1730    -4.3580     7.4010 h1         1 ISH       0.033533
     45 HG1A         2.4890    -0.9220     7.3890 h1         1 ISH       0.031200
     46 HG2A        -6.1380    -0.6340     3.9790 h1         1 ISH       0.032867
     47 HG2B        -5.6580    -1.7990     2.7380 h1         1 ISH       0.032867
     48 HG3A        -4.5240     2.1110     2.0820 h1         1 ISH       0.032867
     49 HG3B        -4.7810     1.7870     3.8020 h1         1 ISH       0.032867
     50 HNPA         5.6030    -0.0620     2.9740 hn         1 ISH       0.449300
@<TRIPOS>BOND
     1     1     6 ar
     2     2     1 ar
     3     2     3 ar
     4     3     4 ar
     5     4     9 1
     6     4     5 ar
     7     5    10 1
     8     6     5 ar
     9     6    12 1
    10     7     3 1
    11     7     8 2
    12     8     9 1
    13     9    13 1
    14    10    11 1
    15    10    37 1
    16    11    14 1
    17    11    27 1
    18    12    11 1
    19    13    28 1
    20    13    38 1
    21    14    23 1
    22    14    29 1
    23    14    39 1
    24    15    13 1
    25    15    18 1
    26    15    40 1
    27    16    41 1
    28    16    42 1
    29    17    22 1
    30    17    43 1
    31    17    44 1
    32    18    33 1
    33    18    45 1
    34    19    23 1
    35    19    46 1
    36    19    47 1
    37    20    35 1
    38    20    48 1
    39    20    49 1
    40    21     8 1
    41    21    50 1
    42    22    16 1
    43    22    18 1
    44    23    20 1
    45    24     1 1
    46    25     2 1
    47    26    10 1
    48    30    15 1
    49    31    16 1
    50    32    17 1
    51    34    19 1
    52    36    21 1
@<TRIPOS>SUBSTRUCTURE
     1 ISH         1 TEMP              0 ****  ****    0 ROOT
