@<TRIPOS>MOLECULE
ISI
   50    52     1     0     0
SMALL
bcc


@<TRIPOS>ATOM
      1 C1           0.0000     0.0000     0.0000 ca         1 ISI      -0.125000
      2 NP1          4.7460     0.0000     3.4920 nv         1 ISI      -0.487800
      3 C2           1.3740     0.0000     0.0000 ca         1 ISI      -0.030000
      4 NP2          1.6040    -2.8470     7.3470 n3         1 ISI      -0.543600
      5 C3           2.0750     0.0000     1.2070 ca         1 ISI       0.078400
      6 NP3         -4.7760    -0.1830     2.6540 n3         1 ISI      -0.546600
      7 C4           1.3600    -0.0060     2.4170 ca         1 ISI      -0.201200
      8 C5          -0.0240    -0.0090     2.4000 ca         1 ISI      -0.181300
      9 C6          -0.7150    -0.0010     1.2010 ca         1 ISI       0.130100
     10 N7           3.3980     0.0030     1.5240 nc         1 ISI      -0.599100
     11 C8           3.5380    -0.0000     2.8260 cd         1 ISI       0.336700
     12 N9           2.3110    -0.0070     3.4250 na         1 ISI       0.257700
     13 C10         -1.0560    -0.0280     3.5120 c3         1 ISI       0.011900
     14 C11         -2.3410    -0.4260     2.7480 c3         1 ISI       0.175100
     15 O12         -2.0620     0.0170     1.4090 os         1 ISI      -0.296900
     16 CA1          2.0490    -0.0110     4.8660 c3         1 ISI      -0.030700
     17 CA2         -3.5590     0.3030     3.3180 c3         1 ISI       0.145800
     18 CB1          1.9610    -1.4560     5.3630 c3         1 ISI      -0.062400
     19 CD1          2.9010    -3.5250     7.2260 c3         1 ISI       0.182100
     20 CE1          1.1100    -2.8980     8.7300 c3         1 ISI       0.182100
     21 CG1          1.6870    -1.4610     6.8690 c3         1 ISI       0.157800
     22 CG2         -5.9800     0.3140     3.3330 c3         1 ISI       0.179100
     23 CG3         -4.7830     0.1840     1.2320 c3         1 ISI       0.179100
     24 H1          -0.5350     0.0010    -0.9420 ha         1 ISI       0.110000
     25 HNP1         5.6020    -0.0160     2.9750 hn         1 ISI       0.274300
     26 HNPA         4.7650     0.0370     4.4920 hn         1 ISI       0.274300
     27 H2           1.9140    -0.0000    -0.9390 ha         1 ISI       0.111000
     28 H10         -1.1610     0.9550     3.9560 hc         1 ISI       0.025200
     29 H10A        -0.8050    -0.7720     4.2570 hc         1 ISI       0.025200
     30 H11         -2.4810    -1.5000     2.7730 h1         1 ISI       0.039700
     31 HA1          1.1130     0.4960     5.0650 h1         1 ISI       0.031700
     32 HA1A         2.8530     0.5000     5.3810 h1         1 ISI       0.031700
     33 HA2         -3.6280     0.1130     4.3820 h1         1 ISI       0.017700
     34 HA2A        -3.4550     1.3670     3.1470 h1         1 ISI       0.017700
     35 HB1          2.8970    -1.9630     5.1650 hc         1 ISI       0.036200
     36 HB1A         1.1570    -1.9670     4.8480 hc         1 ISI       0.036200
     37 HD1          2.9180    -4.3910     7.8760 h1         1 ISI       0.002200
     38 HD1A         3.0490    -3.8410     6.2000 h1         1 ISI       0.002200
     39 HD1B         3.6930    -2.8440     7.5120 h1         1 ISI       0.002200
     40 HE1          1.7840    -2.3470     9.3740 h1         1 ISI       0.002200
     41 HE1A         0.1230    -2.4560     8.7770 h1         1 ISI       0.002200
     42 HE1B         1.0610    -3.9300     9.0570 h1         1 ISI       0.002200
     43 HG1          0.7500    -0.9540     7.0670 h1         1 ISI       0.008200
     44 HG1A         2.4910    -0.9490     7.3840 h1         1 ISI       0.008200
     45 HG2         -5.9870     1.3970     3.3090 h1         1 ISI       0.004367
     46 HG2A        -6.8610    -0.0640     2.8280 h1         1 ISI       0.004367
     47 HG2B        -5.9810    -0.0250     4.3620 h1         1 ISI       0.004367
     48 HG3         -5.8040     0.2210     0.8740 h1         1 ISI       0.004367
     49 HG3A        -4.2280    -0.5540     0.6660 h1         1 ISI       0.004367
     50 HG3B        -4.3210     1.1560     1.1070 h1         1 ISI       0.004367
@<TRIPOS>BOND
     1     1     3 ar  
     2     1     9 ar  
     3     1    24 1   
     4     2    11 1   
     5     2    25 1   
     6     2    26 1   
     7     3     5 ar  
     8     3    27 1   
     9     4    19 1   
    10     4    20 1   
    11     4    21 1   
    12     5     7 ar  
    13     5    10 1   
    14     6    17 1   
    15     6    22 1   
    16     6    23 1   
    17     7     8 ar  
    18     7    12 1   
    19     8     9 ar  
    20     8    13 1   
    21     9    15 1   
    22    10    11 2   
    23    11    12 1   
    24    12    16 1   
    25    13    14 1   
    26    13    28 1   
    27    13    29 1   
    28    14    15 1   
    29    14    17 1   
    30    14    30 1   
    31    16    18 1   
    32    16    31 1   
    33    16    32 1   
    34    17    33 1   
    35    17    34 1   
    36    18    21 1   
    37    18    35 1   
    38    18    36 1   
    39    19    37 1   
    40    19    38 1   
    41    19    39 1   
    42    20    40 1   
    43    20    41 1   
    44    20    42 1   
    45    21    43 1   
    46    21    44 1   
    47    22    45 1   
    48    22    46 1   
    49    22    47 1   
    50    23    48 1   
    51    23    49 1   
    52    23    50 1   
@<TRIPOS>SUBSTRUCTURE
     1 ISI         1 TEMP              0 ****  ****    0 ROOT
