@<TRIPOS>MOLECULE
molecule
   50    52     1     0     0
SMALL
bcc


@<TRIPOS>ATOM
      1 C1           0.0000     0.0000     0.0000 ca         1 ISI      -0.149000
      2 NP1          4.7460     0.0000     3.4920 nv         1 ISI      -0.970800
      3 C2           1.3740     0.0000     0.0000 ca         1 ISI      -0.060000
      4 NP2          1.6040    -2.8470     7.3470 n3         1 ISI      -0.728600
      5 C3           2.0750     0.0000     1.2070 ca         1 ISI       0.103400
      6 NP3         -4.7760    -0.1830     2.6540 n3         1 ISI      -0.733600
      7 C4           1.3600    -0.0060     2.4170 ca         1 ISI      -0.046200
      8 C5          -0.0240    -0.0090     2.4000 ca         1 ISI      -0.177300
      9 C6          -0.7150    -0.0010     1.2010 ca         1 ISI       0.125100
     10 N7           3.3980     0.0030     1.5240 nc         1 ISI      -0.666100
     11 C8           3.5380    -0.0000     2.8260 cd         1 ISI       0.670700
     12 N9           2.3110    -0.0070     3.4250 na         1 ISI      -0.187300
     13 C10         -1.0560    -0.0280     3.5120 c3         1 ISI      -0.060100
     14 C11         -2.3410    -0.4260     2.7480 c3         1 ISI       0.143100
     15 O12         -2.0620     0.0170     1.4090 os         1 ISI      -0.316900
     16 CA1          2.0490    -0.0110     4.8660 c3         1 ISI       0.050300
     17 CA2         -3.5590     0.3030     3.3180 c3         1 ISI       0.164800
     18 CB1          1.9610    -1.4560     5.3630 c3         1 ISI      -0.108400
     19 CD1          2.9010    -3.5250     7.2260 c3         1 ISI       0.150600
     20 CE1          1.1100    -2.8980     8.7300 c3         1 ISI       0.150600
     21 CG1          1.6870    -1.4610     6.8690 c3         1 ISI       0.162800
     22 CG2         -5.9800     0.3140     3.3330 c3         1 ISI       0.152100
     23 CG3         -4.7830     0.1840     1.2320 c3         1 ISI       0.152100
     24 H1          -0.5350     0.0010    -0.9420 ha         1 ISI       0.141000
     25 HNP1         5.6020    -0.0160     2.9750 hn         1 ISI       0.448800
     26 HNPA         4.7650     0.0370     4.4920 hn         1 ISI       0.448800
     27 H2           1.9140    -0.0000    -0.9390 ha         1 ISI       0.146000
     28 H10         -1.1610     0.9550     3.9560 hc         1 ISI       0.057200
     29 H10A        -0.8050    -0.7720     4.2570 hc         1 ISI       0.057200
     30 H11         -2.4810    -1.5000     2.7730 h1         1 ISI       0.076700
     31 HA1          1.1130     0.4960     5.0650 h1         1 ISI       0.056700
     32 HA1A         2.8530     0.5000     5.3810 h1         1 ISI       0.056700
     33 HA2         -3.6280     0.1130     4.3820 h1         1 ISI       0.044200
     34 HA2A        -3.4550     1.3670     3.1470 h1         1 ISI       0.044200
     35 HB1          2.8970    -1.9630     5.1650 hc         1 ISI       0.065200
     36 HB1A         1.1570    -1.9670     4.8480 hc         1 ISI       0.065200
     37 HD1          2.9180    -4.3910     7.8760 h1         1 ISI       0.033367
     38 HD1A         3.0490    -3.8410     6.2000 h1         1 ISI       0.033367
     39 HD1B         3.6930    -2.8440     7.5120 h1         1 ISI       0.033367
     40 HE1          1.7840    -2.3470     9.3740 h1         1 ISI       0.033367
     41 HE1A         0.1230    -2.4560     8.7770 h1         1 ISI       0.033367
     42 HE1B         1.0610    -3.9300     9.0570 h1         1 ISI       0.033367
     43 HG1          0.7500    -0.9540     7.0670 h1         1 ISI       0.031700
     44 HG1A         2.4910    -0.9490     7.3840 h1         1 ISI       0.031700
     45 HG2         -5.9870     1.3970     3.3090 h1         1 ISI       0.034867
     46 HG2A        -6.8610    -0.0640     2.8280 h1         1 ISI       0.034867
     47 HG2B        -5.9810    -0.0250     4.3620 h1         1 ISI       0.034867
     48 HG3         -5.8040     0.2210     0.8740 h1         1 ISI       0.034867
     49 HG3A        -4.2280    -0.5540     0.6660 h1         1 ISI       0.034867
     50 HG3B        -4.3210     1.1560     1.1070 h1         1 ISI       0.034867
@<TRIPOS>BOND
     1     1     3 ar
     2     1     9 ar
     3     3     5 ar
     4     4    19 1
     5     4    21 1
     6     5    10 1
     7     5     7 ar
     8     6    17 1
     9     6    23 1
    10     7    12 1
    11     8     7 ar
    12     8    13 1
    13     9     8 ar
    14    10    11 2
    15    11     2 1
    16    11    12 1
    17    12    16 1
    18    14    13 1
    19    14    17 1
    20    15     9 1
    21    15    14 1
    22    18    16 1
    23    18    21 1
    24    20     4 1
    25    22     6 1
    26     1    24 1
    27     2    25 1
    28     2    26 1
    29     3    27 1
    30    13    28 1
    31    13    29 1
    32    14    30 1
    33    16    31 1
    34    16    32 1
    35    17    33 1
    36    17    34 1
    37    18    35 1
    38    18    36 1
    39    19    37 1
    40    19    38 1
    41    19    39 1
    42    20    40 1
    43    20    41 1
    44    20    42 1
    45    21    43 1
    46    21    44 1
    47    22    45 1
    48    22    46 1
    49    22    47 1
    50    23    48 1
    51    23    49 1
    52    23    50 1
@<TRIPOS>SUBSTRUCTURE
     1 ISI         1 TEMP              0 ****  ****    0 ROOT
