@<TRIPOS>MOLECULE
molecule
   24    24     1     0     0
SMALL
bcc


@<TRIPOS>ATOM
      1 C1           0.0000     0.0000     0.0000 c3         1 ISJ       0.164300
      2 C2           1.5070     0.0000     0.0000 c2         1 ISJ      -0.165200
      3 C3           2.1780     0.0000     1.1670 ce         1 ISJ      -0.119200
      4 C4           1.4230     0.0020     2.4400 ce         1 ISJ      -0.020000
      5 C5           0.1540     0.3850     2.4510 c2         1 ISJ      -0.264200
      6 C6          -0.5210     0.8210     1.1780 c3         1 ISJ       0.196300
      7 C7           3.6540    -0.0020     1.1770 c          1 ISJ       0.892800
      8 O8           4.2690    -0.0030     0.1280 o          1 ISJ      -0.857800
      9 O9           4.3200    -0.0020     2.3480 o          1 ISJ      -0.857800
     10 O10         -0.2490     2.2050     0.9480 oh         1 ISJ      -0.598800
     11 O11         -0.4740    -1.3440     0.1110 os         1 ISJ      -0.304900
     12 C12         -0.5670    -2.0630    -1.0390 ce         1 ISJ       0.050900
     13 C13         -1.1570    -3.4130    -1.0180 c          1 ISJ       0.904800
     14 O14         -1.5610    -3.8830     0.0260 o          1 ISJ      -0.837800
     15 O15         -1.2490    -4.1260    -2.1590 o          1 ISJ      -0.837800
     16 C16         -0.1230    -1.5460    -2.1860 c2         1 ISJ      -0.375000
     17 H1          -0.3570     0.4370    -0.9250 h1         1 ISJ       0.038700
     18 H2           2.0480     0.0660    -0.9360 ha         1 ISJ       0.148000
     19 H4           1.8770    -0.3980     3.3390 ha         1 ISJ       0.134000
     20 H5          -0.4000     0.3850     3.3820 ha         1 ISJ       0.094000
     21 H6          -1.5890     0.6710     1.2720 h1         1 ISJ       0.023700
     22 HO10        -1.0190     2.7130     1.1440 ho         1 ISJ       0.371000
     23 H16         -0.1970    -2.1180    -3.1030 ha         1 ISJ       0.110500
     24 H16A         0.3110    -0.5530    -2.2010 ha         1 ISJ       0.110500
@<TRIPOS>BOND
     1     1     2 1
     2     1     6 1
     3     1    11 1
     4     2     3 2
     5     3     4 1
     6     3     7 1
     7     4     5 2
     8     5     6 1
     9     6    10 1
    10     7     8 1
    11     7     9 1
    12    11    12 1
    13    12    13 1
    14    12    16 2
    15    13    14 1
    16    13    15 1
    17     1    17 1
    18     2    18 1
    19     4    19 1
    20     5    20 1
    21     6    21 1
    22    10    22 1
    23    16    23 1
    24    16    24 1
@<TRIPOS>SUBSTRUCTURE
     1 ISJ         1 TEMP              0 ****  ****    0 ROOT
