@<TRIPOS>MOLECULE
ISJ
   24    24     1     0     0
SMALL
bcc


@<TRIPOS>ATOM
      1 C1          0.4350   -0.5050    0.2240 c3        1 ISJ      0.137300
      2 C2          1.8990   -0.6180    0.5110 c2        1 ISJ     -0.156200
      3 C3          2.4810    0.1250    1.4720 ce        1 ISJ     -0.156200
      4 C4          1.6560    0.9780    2.3170 ce        1 ISJ     -0.095000
      5 C5          0.3170    0.8880    2.3100 c2        1 ISJ     -0.219200
      6 C6         -0.3830   -0.1420    1.4830 c3        1 ISJ      0.180300
      7 C7          3.9770    0.1390    1.7150 c         1 ISJ      0.907800
      8 O8          4.7180   -0.6210    1.0250 o         1 ISJ     -0.852800
      9 O9          4.4360    0.9240    2.5990 o         1 ISJ     -0.852800
     10 O10        -1.6650    0.3480    1.1210 oh        1 ISJ     -0.646800
     11 O11        -0.0970   -1.7600   -0.2380 os        1 ISJ     -0.347900
     12 C12        -0.6660   -1.7270   -1.5040 ce        1 ISJ      0.031900
     13 C13        -2.1020   -2.2410   -1.5340 c         1 ISJ      0.916800
     14 O14        -2.9180   -1.7380   -0.7080 o         1 ISJ     -0.835800
     15 O15        -2.4170   -3.1000   -2.4020 o         1 ISJ     -0.835800
     16 C16        -0.0020   -1.2910   -2.5830 c2        1 ISJ     -0.332000
     17 H1          0.2830    0.2950   -0.5550 h1        1 ISJ      0.055700
     18 H2          2.4840   -1.2910   -0.1310 ha        1 ISJ      0.148000
     19 H4          2.2060    1.6810    2.9650 ha        1 ISJ      0.141000
     20 H5         -0.3310    1.5220    2.9280 ha        1 ISJ      0.108000
     21 H6         -0.5160   -1.0790    2.1030 h1        1 ISJ      0.039700
     22 HO10       -2.0630   -0.3300    0.5420 ho        1 ISJ      0.458000
     23 H16         1.0050   -0.8640   -2.5310 ha        1 ISJ      0.103000
     24 H16A       -0.4570   -1.3580   -3.5770 ha        1 ISJ      0.103000
@<TRIPOS>BOND
     1    1    2 1   
     2    1    6 1   
     3    1   11 1   
     4    1   17 1   
     5    2    3 2   
     6    2   18 1   
     7    3    4 1   
     8    3    7 1   
     9    4    5 2   
    10    4   19 1   
    11    5    6 1   
    12    5   20 1   
    13    6   10 1   
    14    6   21 1   
    15    7    8 1   
    16    7    9 1   
    17   10   22 1   
    18   11   12 1   
    19   12   13 1   
    20   12   16 2   
    21   13   14 1   
    22   13   15 1   
    23   16   23 1   
    24   16   24 1   
@<TRIPOS>SUBSTRUCTURE
     1 ISJ         1 TEMP              0 ****  ****    0 ROOT
