@<TRIPOS>MOLECULE
ISM
   25    25     1     0     0
SMALL
bcc


@<TRIPOS>ATOM
      1 O1           0.0000     0.0000     0.0000 o          1 ISM      -0.889300
      2 C1           1.2140     0.0000     0.0000 c          1 ISM       0.985200
      3 C2           1.9530     0.0000     1.2790 ca         1 ISM      -0.077600
      4 C3           3.3440    -0.1200     1.2840 ca         1 ISM      -0.080000
      5 C4           4.0300    -0.1200     2.4880 ca         1 ISM      -0.012400
      6 N1           5.4220    -0.2410     2.4990 nv         1 ISM      -0.545200
      7 C5           3.3340    -0.0000     3.6850 ca         1 ISM      -0.150000
      8 C6           1.9570     0.1190     3.6800 ca         1 ISM      -0.119000
      9 C7           1.2640     0.1260     2.4870 ca         1 ISM      -0.060300
     10 C8          -0.2360     0.2610     2.4870 c3         1 ISM      -0.024100
     11 C9          -0.8650    -1.0970     2.3090 c          1 ISM       0.728100
     12 O2          -0.1650    -2.0750     2.1940 o          1 ISM      -0.592000
     13 O3          -2.2010    -1.2200     2.2790 os         1 ISM      -0.426900
     14 C10         -2.7350    -2.5590     2.1050 c3         1 ISM       0.267700
     15 OX0          1.8880    -0.0040    -1.1670 o          1 ISM      -0.889300
     16 H3           3.8910    -0.1280     0.3480 ha         1 ISM       0.133000
     17 H11N         5.9890     0.5320     2.7890 hn         1 ISM       0.255800
     18 H12N         5.8530    -1.0890     2.1900 hn         1 ISM       0.255800
     19 H5           3.8720    -0.0030     4.6250 ha         1 ISM       0.085000
     20 H6           1.4200     0.2140     4.6160 ha         1 ISM       0.084000
     21 H81C        -0.5400     0.9090     1.6730 hc         1 ISM       0.049700
     22 H82C        -0.5600     0.6880     3.4280 hc         1 ISM       0.049700
     23 H101        -3.8180    -2.5210     2.1210 h1         1 ISM      -0.009633
     24 H102        -2.4020    -2.9610     1.1560 h1         1 ISM      -0.009633
     25 H103        -2.3850    -3.1950     2.9090 h1         1 ISM      -0.009633
@<TRIPOS>BOND
     1     1     2 1   
     2     2     3 1   
     3     2    15 1   
     4     3     4 ar  
     5     3     9 ar  
     6     4     5 ar  
     7     4    16 1   
     8     5     6 1   
     9     5     7 ar  
    10     6    17 1   
    11     6    18 1   
    12     7     8 ar  
    13     7    19 1   
    14     8     9 ar  
    15     8    20 1   
    16     9    10 1   
    17    10    11 1   
    18    10    21 1   
    19    10    22 1   
    20    11    12 2   
    21    11    13 1   
    22    13    14 1   
    23    14    23 1   
    24    14    24 1   
    25    14    25 1   
@<TRIPOS>SUBSTRUCTURE
     1 ISM         1 TEMP              0 ****  ****    0 ROOT
