@<TRIPOS>MOLECULE
ISN
   16    17     1     0     0
SMALL
bcc


@<TRIPOS>ATOM
      1 C1           0.0000     0.0000     0.0000 ca         1 ISN      -0.265600
      2 C2           1.3950     0.0000     0.0000 ca         1 ISN       0.024000
      3 C3           2.0780     0.0000     1.1990 ca         1 ISN      -0.148000
      4 C4           1.3820     0.0000     2.3940 ca         1 ISN      -0.032000
      5 C5          -0.0010    -0.0010     2.4050 ca         1 ISN      -0.138000
      6 N1          -2.0760    -0.0010     0.9530 ns         1 ISN      -0.013100
      7 C6          -0.7090    -0.0010     1.2110 ca         1 ISN      -0.059400
      8 C7          -1.0060    -0.0060    -1.0770 c          1 ISN       0.557700
      9 C10         -2.3270    -0.0020    -0.3680 c          1 ISN       0.510500
     10 O8          -0.8080    -0.0110    -2.2740 o          1 ISN      -0.471100
     11 O11         -3.4210    -0.0020    -0.8910 o          1 ISN      -0.590500
     12 H2           1.9400     0.0000    -0.9370 ha         1 ISN       0.113000
     13 H3           3.1620     0.0010     1.2050 ha         1 ISN       0.113000
     14 H4           1.9250     0.0000     3.3320 ha         1 ISN       0.105000
     15 H5          -0.5330    -0.0010     3.3490 ha         1 ISN       0.111000
     16 H1          -2.7840     0.0010     1.6610 hn         1 ISN       0.182500
@<TRIPOS>BOND
     1     1     2 ar  
     2     1     7 ar  
     3     1     8 1   
     4     2     3 ar  
     5     2    12 1   
     6     3     4 ar  
     7     3    13 1   
     8     4     5 ar  
     9     4    14 1   
    10     5     7 ar  
    11     5    15 1   
    12     6     7 1   
    13     6     9 1   
    14     6    16 1   
    15     8     9 1   
    16     8    10 2   
    17     9    11 2   
@<TRIPOS>SUBSTRUCTURE
     1 ISN         1 TEMP              0 ****  ****    0 ROOT
