@<TRIPOS>MOLECULE
molecule
   23    23     1     0     0
SMALL
bcc


@<TRIPOS>ATOM
      1 C1           0.0000     0.0000     0.0000 ca         1 ISO       0.158600
      2 N1          -0.6990     0.0000    -1.2100 nv         1 ISO      -0.992200
      3 C2           1.3890     0.0000     0.0000 ca         1 ISO      -0.142500
      4 C3           2.0780     0.0000     1.1970 ca         1 ISO      -0.122000
      5 C4           1.3860     0.0010     2.3940 ca         1 ISO      -0.085300
      6 C5           0.0030     0.0010     2.3980 ca         1 ISO      -0.122000
      7 C6          -0.6920     0.0060     1.2040 ca         1 ISO      -0.142500
      8 C1'          2.1410     0.0020     3.6990 c3         1 ISO      -0.030400
      9 C2'          1.7720     1.2520     4.5010 c3         1 ISO      -0.085100
     10 C3'          1.7710    -1.2470     4.5020 c3         1 ISO      -0.085100
     11 HN11        -0.9530    -0.8670    -1.6410 hn         1 ISO       0.425800
     12 HN12        -0.9500     0.8670    -1.6430 hn         1 ISO       0.425800
     13 H2           1.9320    -0.0010    -0.9380 ha         1 ISO       0.133500
     14 H3           3.1610     0.0000     1.1980 ha         1 ISO       0.129500
     15 H5          -0.5360     0.0040     3.3380 ha         1 ISO       0.129500
     16 H6          -1.7750     0.0060     1.2070 ha         1 ISO       0.133500
     17 H1'          3.2060     0.0020     3.5000 hc         1 ISO       0.053700
     18 H2'1         0.7580     1.1590     4.8690 hc         1 ISO       0.035700
     19 H2'2         2.4520     1.3570     5.3380 hc         1 ISO       0.035700
     20 H2'3         1.8470     2.1250     3.8640 hc         1 ISO       0.035700
     21 H3'1         1.8460    -2.1210     3.8660 hc         1 ISO       0.035700
     22 H3'2         0.7570    -1.1540     4.8690 hc         1 ISO       0.035700
     23 H3'3         2.4500    -1.3520     5.3400 hc         1 ISO       0.035700
@<TRIPOS>BOND
     1     1     2 1
     2     1     3 ar
     3     1     7 ar
     4     2    11 1
     5     2    12 1
     6     3     4 ar
     7     3    13 1
     8     4     5 ar
     9     4    14 1
    10     5     6 ar
    11     5     8 1
    12     6     7 ar
    13     6    15 1
    14     7    16 1
    15     8     9 1
    16     8    10 1
    17     8    17 1
    18     9    18 1
    19     9    19 1
    20     9    20 1
    21    10    21 1
    22    10    22 1
    23    10    23 1
@<TRIPOS>SUBSTRUCTURE
     1 ISO         1 TEMP              0 ****  ****    0 ROOT
