@<TRIPOS>MOLECULE
ISP
   15    14     1     0     0
SMALL
bcc


@<TRIPOS>ATOM
      1 C1         -0.0060   -0.0140    0.0100 c3        1 ISP     -0.108100
      2 C2          1.5270    0.0030   -0.0070 c3        1 ISP      0.235100
      3 C3          2.0320   -0.0110    1.4400 c3        1 ISP     -0.108100
      4 P           2.9830   -0.6240   -2.0820 p5        1 ISP      1.312900
      5 O1P         2.0160   -1.0770   -0.7020 os        1 ISP     -0.560200
      6 O2P         3.3800   -1.9620   -2.6430 o         1 ISP     -0.936167
      7 O3P         1.9930    0.1800   -2.8850 o         1 ISP     -0.936167
      8 O4P         4.0720    0.1850   -1.4270 o         1 ISP     -0.936167
      9 H11        -0.3770    0.0330   -1.0410 hc        1 ISP      0.000033
     10 H12        -0.4050    0.8580    0.5830 hc        1 ISP      0.000033
     11 H13        -0.3820   -0.9520    0.4820 hc        1 ISP      0.000033
     12 H2          1.8660    0.9690   -0.4910 h1        1 ISP      0.037700
     13 H31         1.7180   -0.9500    1.9550 hc        1 ISP      0.000033
     14 H32         1.6270    0.8600    2.0090 hc        1 ISP      0.000033
     15 H33         3.1460    0.0380    1.4320 hc        1 ISP      0.000033
@<TRIPOS>BOND
     1    1    2 1   
     2    1    9 1   
     3    1   10 1   
     4    1   11 1   
     5    2    3 1   
     6    2    5 1   
     7    2   12 1   
     8    3   13 1   
     9    3   14 1   
    10    3   15 1   
    11    4    5 1   
    12    4    6 1   
    13    4    7 1   
    14    4    8 1   
@<TRIPOS>SUBSTRUCTURE
     1 ISP         1 TEMP              0 ****  ****    0 ROOT
