@<TRIPOS>MOLECULE
molecule
   15    14     1     0     0
SMALL
bcc


@<TRIPOS>ATOM
      1 C1           0.0000     0.0000     0.0000 c3         1 ISP      -0.100600
      2 C2           1.5300     0.0000     0.0000 c3         1 ISP       0.177100
      3 C3           2.0390     0.0000     1.4420 c3         1 ISP      -0.100600
      4 P            2.8870    -0.6560    -1.9200 p5         1 ISP       1.157900
      5 O1P          2.0060    -1.1650    -0.6750 os         1 ISP      -0.537200
      6 O2P          3.4580    -1.9250    -2.7290 o          1 ISP      -0.915500
      7 O3P          1.9690     0.2340    -2.8980 o          1 ISP      -0.915500
      8 O4P          4.0160     0.1630    -1.4250 o          1 ISP      -0.915500
      9 H11         -0.3610     0.8440     0.5760 hc         1 ISP       0.011700
     10 H12         -0.3610    -0.9200     0.4430 hc         1 ISP       0.011700
     11 H13         -0.3610     0.0770    -1.0180 hc         1 ISP       0.011700
     12 H2           1.8900     0.8850    -0.5100 h1         1 ISP       0.077700
     13 H31          1.7570    -0.9280     1.9250 hc         1 ISP       0.011700
     14 H32          3.1180     0.0940     1.4440 hc         1 ISP       0.011700
     15 H33          1.6020     0.8340     1.9790 hc         1 ISP       0.011700
@<TRIPOS>BOND
     1     1     2 1
     2     1     9 1
     3     1    10 1
     4     1    11 1
     5     2     3 1
     6     2     5 1
     7     2    12 1
     8     3    13 1
     9     3    14 1
    10     3    15 1
    11     4     5 1
    12     4     6 1
    13     4     7 1
    14     4     8 1
@<TRIPOS>SUBSTRUCTURE
     1 ISP         1 TEMP              0 ****  ****    0 ROOT
