@<TRIPOS>MOLECULE
molecule
   17    18     1     0     0
SMALL
bcc


@<TRIPOS>ATOM
      1 C1           0.0000     0.0000     0.0000 ca         1 ISQ       0.445200
      2 N2           1.3120     0.0000     0.0000 nb         1 ISQ      -0.695000
      3 C3           2.0290     0.0000     1.1130 ca         1 ISQ       0.413200
      4 C4           1.4470     0.0000     2.3450 ca         1 ISQ      -0.239300
      5 C4A          0.0430     0.0000     2.4260 ca         1 ISQ      -0.012000
      6 C5          -0.6350    -0.0000     3.6530 ca         1 ISQ      -0.122000
      7 C6          -1.9960     0.0000     3.6670 ca         1 ISQ      -0.110000
      8 C7          -2.7270     0.0000     2.4810 ca         1 ISQ      -0.131000
      9 C8          -2.1020     0.0000     1.2700 ca         1 ISQ      -0.101000
     10 C8A         -0.7000     0.0000     1.2170 ca         1 ISQ      -0.168300
     11 H1          -0.5420    -0.0000    -0.9380 h4         1 ISQ       0.026100
     12 H3           3.1100     0.0000     1.0430 h4         1 ISQ       0.020100
     13 H4           2.0530    -0.0000     3.2430 ha         1 ISQ       0.140000
     14 H5          -0.0800    -0.0000     4.5830 ha         1 ISQ       0.136000
     15 H6          -2.5200    -0.0000     4.6150 ha         1 ISQ       0.131000
     16 H7          -3.8090     0.0000     2.5220 ha         1 ISQ       0.131000
     17 H8          -2.6830     0.0000     0.3560 ha         1 ISQ       0.135000
@<TRIPOS>BOND
     1     1     2 ar
     2     1    10 ar
     3     1    11 1
     4     2     3 ar
     5     3     4 ar
     6     3    12 1
     7     4     5 ar
     8     4    13 1
     9     5     6 ar
    10     5    10 ar
    11     6     7 ar
    12     6    14 1
    13     7     8 ar
    14     7    15 1
    15     8     9 ar
    16     8    16 1
    17     9    10 ar
    18     9    17 1
@<TRIPOS>SUBSTRUCTURE
     1 ISQ         1 TEMP              0 ****  ****    0 ROOT
