@<TRIPOS>MOLECULE
ISQ
   17    18     1     0     0
SMALL
bcc


@<TRIPOS>ATOM
      1 C1          0.0330   -0.0000   -0.0050 ca        1 ISQ      0.422200
      2 N2          1.3530   -0.0000   -0.0780 nb        1 ISQ     -0.664000
      3 C3          2.0560    0.0000    1.1000 ca        1 ISQ      0.382200
      4 C4          1.4630   -0.0000    2.3490 ca        1 ISQ     -0.229300
      5 C4A         0.0430   -0.0000    2.4380 ca        1 ISQ     -0.013000
      6 C5         -0.6520   -0.0000    3.6760 ca        1 ISQ     -0.125000
      7 C6         -2.0260    0.0000    3.6980 ca        1 ISQ     -0.112000
      8 C7         -2.7650    0.0000    2.4900 ca        1 ISQ     -0.132000
      9 C8         -2.1180    0.0000    1.2780 ca        1 ISQ     -0.100000
     10 C8A        -0.7010   -0.0000    1.2290 ca        1 ISQ     -0.161300
     11 H1         -0.5200   -0.0000   -0.9620 h4        1 ISQ      0.022100
     12 H3          3.1540    0.0000    0.9800 h4        1 ISQ      0.022100
     13 H4          2.0660   -0.0000    3.2670 ha        1 ISQ      0.143000
     14 H5         -0.0700   -0.0000    4.6100 ha        1 ISQ      0.137000
     15 H6         -2.5700    0.0000    4.6550 ha        1 ISQ      0.135000
     16 H7         -3.8650    0.0000    2.5380 ha        1 ISQ      0.136000
     17 H8         -2.6820    0.0000    0.3330 ha        1 ISQ      0.136000
@<TRIPOS>BOND
     1    1    2 ar  
     2    1   10 ar  
     3    1   11 1   
     4    2    3 ar  
     5    3    4 ar  
     6    3   12 1   
     7    4    5 ar  
     8    4   13 1   
     9    5    6 ar  
    10    5   10 ar  
    11    6    7 ar  
    12    6   14 1   
    13    7    8 ar  
    14    7   15 1   
    15    8    9 ar  
    16    8   16 1   
    17    9   10 ar  
    18    9   17 1   
@<TRIPOS>SUBSTRUCTURE
     1 ISQ         1 TEMP              0 ****  ****    0 ROOT
