@<TRIPOS>MOLECULE
molecule
   22    21     1     0     0
SMALL
bcc


@<TRIPOS>ATOM
      1 CAG          0.0000     0.0000     0.0000 c          1 ISS       0.586100
      2 OAH          1.2150     0.0000     0.0000 o          1 ISS      -0.556100
      3 CAI         -0.7010     0.0000     1.2150 ce         1 ISS      -0.422200
      4 CAJ         -2.0560     0.0000     1.2150 c2         1 ISS       0.155000
      5 NAK         -2.7370    -0.0000     2.3950 nu         1 ISS      -0.795000
      6 CAL         -4.2020     0.0000     2.3960 c3         1 ISS       0.125800
      7 CAM         -4.7050    -0.0000     3.8160 c          1 ISS       0.558100
      8 OAN         -3.9190    -0.0000     4.7340 o          1 ISS      -0.519100
      9 CAO         -6.1860     0.0000     4.0920 c3         1 ISS      -0.179400
     10 CAP         -6.4230    -0.0000     5.6040 c3         1 ISS       0.150400
     11 OAQ         -7.8280     0.0000     5.8650 oh         1 ISS      -0.615800
     12 HAG         -0.5420    -0.0300    -0.9380 h4         1 ISS      -0.029800
     13 HAI         -0.1590     0.0000     2.1530 ha         1 ISS       0.152000
     14 HAJ         -2.5980     0.0000     0.2760 h4         1 ISS       0.141000
     15 HNAK        -2.2370     0.0230     3.2620 hn         1 ISS       0.468800
     16 HAL         -4.5630    -0.8840     1.8850 h1         1 ISS       0.066700
     17 HALA        -4.5630     0.8840     1.8850 h1         1 ISS       0.066700
     18 HAO         -6.6340     0.8850     3.6560 hc         1 ISS       0.081700
     19 HAOA        -6.6340    -0.8850     3.6560 hc         1 ISS       0.081700
     20 HAP         -5.9750     0.8850     6.0400 h1         1 ISS       0.036700
     21 HAPA        -5.9750    -0.8850     6.0400 h1         1 ISS       0.036700
     22 HOAQ        -7.9750    -0.0000     6.7960 ho         1 ISS       0.411000
@<TRIPOS>BOND
     1     1     2 2
     2     1     3 1
     3     3     4 2
     4     4     5 1
     5     5     6 1
     6     6     7 1
     7     7     8 2
     8     7     9 1
     9     9    10 1
    10    10    11 1
    11     1    12 1
    12     3    13 1
    13     4    14 1
    14     5    15 1
    15     6    16 1
    16     6    17 1
    17     9    18 1
    18     9    19 1
    19    10    20 1
    20    10    21 1
    21    11    22 1
@<TRIPOS>SUBSTRUCTURE
     1 ISS         1 TEMP              0 ****  ****    0 ROOT
