@<TRIPOS>MOLECULE
ISS
   22    23     1     0     0
SMALL
bcc


@<TRIPOS>ATOM
      1 CAG          0.0000     0.0000     0.0000 c3         1 ISS       0.316000
      2 OAH          1.2150     0.0000     0.0000 o          1 ISS      -0.364000
      3 CAI         -0.7010     0.0000     1.2150 c2         1 ISS      -0.558000
      4 CAJ         -2.0560     0.0000     1.2150 c2         1 ISS      -0.262000
      5 NAK         -2.7370    -0.0000     2.3950 ny         1 ISS       0.251000
      6 CAL         -4.2020     0.0000     2.3960 c3         1 ISS      -0.149000
      7 CAM         -4.7050    -0.0000     3.8160 c2         1 ISS       0.254000
      8 OAN         -3.9190    -0.0000     4.7340 o          1 ISS      -0.306000
      9 CAO         -6.1860     0.0000     4.0920 c3         1 ISS      -0.151000
     10 CAP         -6.4230    -0.0000     5.6040 c3         1 ISS       0.084000
     11 OAQ         -7.8280     0.0000     5.8650 oh         1 ISS      -0.325000
     12 HAG         -0.5410    -0.0490    -0.9370 h1         1 ISS       0.040000
     13 HAI         -0.5530     0.8750     0.5940 DU         1 ISS       0.187000
     14 HAJ         -2.2040    -0.8750     1.8360 DU         1 ISS       0.246000
     15 HNAK        -2.2370     0.0470     3.2610 hn         1 ISS       0.076000
     16 HAL         -4.5630     0.8840     1.8850 hx         1 ISS       0.104000
     17 HALA        -4.5630    -0.8840     1.8850 hx         1 ISS       0.104000
     18 HAO         -6.6340    -0.8850     3.6560 hc         1 ISS       0.089000
     19 HAOA        -6.6340     0.8850     3.6560 hc         1 ISS       0.089000
     20 HAP         -5.9750     0.8850     6.0400 h1         1 ISS       0.039000
     21 HAPA        -5.9750    -0.8850     6.0400 h1         1 ISS       0.039000
     22 HOAQ        -7.9750     0.0000     6.7960 ho         1 ISS       0.199000
@<TRIPOS>BOND
     1     1     2 1   
     2     1     3 1   
     3     1    12 1   
     4     1    13 1   
     5     3     4 1   
     6     3    13 1   
     7     4     5 1   
     8     4    14 1   
     9     5     6 1   
    10     5    14 1   
    11     5    15 1   
    12     6     7 1   
    13     6    16 1   
    14     6    17 1   
    15     7     8 1   
    16     7     9 1   
    17     9    10 1   
    18     9    18 1   
    19     9    19 1   
    20    10    11 1   
    21    10    20 1   
    22    10    21 1   
    23    11    22 1   
@<TRIPOS>SUBSTRUCTURE
     1 ISS         1 TEMP              0 ****  ****    0 ROOT
