@<TRIPOS>MOLECULE
IST
   29    28     1     0     0
SMALL
bcc


@<TRIPOS>ATOM
      1 C2           0.0000     0.0000     0.0000 c3         1 IST       0.000900
      2 C5           1.5230     0.0000     0.0000 c3         1 IST      -0.027400
      3 C8           2.1820     0.0000     1.3980 c3         1 IST      -0.075700
      4 C10          3.7090     0.1330     1.2570 c3         1 IST       0.001900
      5 CA1          1.7970    -1.2280     2.2800 c3         1 IST      -0.082500
      6 C16          2.3680    -1.1830     3.7220 c3         1 IST       0.213100
      7 O18          1.9030    -0.0190     4.4070 oh         1 IST      -0.536800
      8 CA2          1.9870    -2.4130     4.5600 c3         1 IST      -0.188400
      9 C23          0.4890    -2.5850     4.6770 c          1 IST       0.956600
     10 O24          0.1790    -3.9030     4.7780 o          1 IST      -0.860800
     11 O25         -0.3440    -1.6910     4.6740 o          1 IST      -0.860800
     12 N11          2.2350    -2.4560     1.5990 nz         1 IST       0.053400
     13 H21         -0.3610     0.4880    -0.8970 hc         1 IST       0.016033
     14 H23         -0.3610     0.5330     0.8710 hc         1 IST       0.016033
     15 H22         -0.3610    -1.0210     0.0260 hc         1 IST       0.016033
     16 H51          1.8630     0.8780    -0.5350 hc         1 IST       0.009700
     17 H52          1.8630    -0.8780    -0.5350 hc         1 IST       0.009700
     18 H8           1.8310     0.8850     1.9150 hc         1 IST       0.081700
     19 H101         4.1200    -0.7980     0.8840 hc         1 IST       0.009367
     20 H102         4.1430     0.3580     2.2240 hc         1 IST       0.009367
     21 H103         3.9390     0.9330     0.5630 hc         1 IST       0.009367
     22 HA1          0.7160    -1.2550     2.3530 hx         1 IST       0.134700
     23 H16          3.4490    -1.1340     3.6600 h1         1 IST      -0.027300
     24 H18          2.5430     0.2460     5.0470 ho         1 IST       0.395000
     25 HA21         2.4060    -3.2980     4.0960 hc         1 IST       0.024200
     26 HA22         2.4060    -2.3050     5.5530 hc         1 IST       0.024200
     27 H11          2.2500    -2.3030     0.6100 hn         1 IST       0.227133
     28 H12          3.1530    -2.7020     1.9130 hn         1 IST       0.227133
     29 H113         1.5990    -3.2000     1.8120 hn         1 IST       0.227133
@<TRIPOS>BOND
     1     1     2 1   
     2     1    13 1   
     3     1    14 1   
     4     1    15 1   
     5     2     3 1   
     6     2    16 1   
     7     2    17 1   
     8     3     4 1   
     9     3     5 1   
    10     3    18 1   
    11     4    19 1   
    12     4    20 1   
    13     4    21 1   
    14     5     6 1   
    15     5    12 1   
    16     5    22 1   
    17     6     7 1   
    18     6     8 1   
    19     6    23 1   
    20     7    24 1   
    21     8     9 1   
    22     8    25 1   
    23     8    26 1   
    24     9    10 1   
    25     9    11 1   
    26    12    27 1   
    27    12    28 1   
    28    12    29 1   
@<TRIPOS>SUBSTRUCTURE
     1 IST         1 TEMP              0 ****  ****    0 ROOT
