@<TRIPOS>MOLECULE
ISU
   15    14     1     0     0
SMALL
bcc


@<TRIPOS>ATOM
      1 C1           0.0000     0.0000     0.0000 c3         1 ISU       0.013900
      2 C2           1.5300     0.0000     0.0000 c3         1 ISU       0.169700
      3 SE           2.1840     0.0000     1.8470 ss         1 ISU      -0.327300
      4 C3           4.0800    -0.0000     1.3570 c2         1 ISU       0.192100
      5 N1           5.0410    -0.0000     2.3330 nz         1 ISU       0.206400
      6 N2           4.4270    -0.0000     0.1110 n2         1 ISU      -0.480100
      7 HC11        -0.3610     0.8840     0.5110 hc         1 ISU       0.032700
      8 HC12        -0.3610    -0.8850     0.5110 hc         1 ISU       0.032700
      9 HC13        -0.3610     0.0000    -1.0210 hc         1 ISU       0.032700
     10 HC21         1.8910     0.8840    -0.5110 h1         1 ISU       0.039700
     11 HC22         1.8910    -0.8840    -0.5110 h1         1 ISU       0.039700
     12 HN11         5.6110     0.8170     2.2410 hn         1 ISU       0.221800
     13 HN12         4.6020    -0.0000     3.2330 hn         1 ISU       0.221800
     14 HN2          3.7270    -0.0000    -0.6050 hn         1 ISU       0.382400
     15 H13          5.6110    -0.8170     2.2400 hn         1 ISU       0.221800
@<TRIPOS>BOND
     1     1     2 1   
     2     1     7 1   
     3     1     8 1   
     4     1     9 1   
     5     2     3 1   
     6     2    10 1   
     7     2    11 1   
     8     3     4 1   
     9     4     5 1   
    10     4     6 2   
    11     5    12 1   
    12     5    13 1   
    13     5    15 1   
    14     6    14 1   
@<TRIPOS>SUBSTRUCTURE
     1 ISU         1 TEMP              0 ****  ****    0 ROOT
