@<TRIPOS>MOLECULE
ISX
   44    45     1     0     0
SMALL
bcc


@<TRIPOS>ATOM
      1 O6           0.0000     0.0000     0.0000 oh         1 ISX      -0.593800
      2 C5           3.3540    -0.1230     3.7850 c3         1 ISX       0.109800
      3 N5           1.8920     0.0000     3.7660 n7         1 ISX      -0.562200
      4 C4           3.9670     0.8390     2.7650 c3         1 ISX       0.131100
      5 O4           5.3910     0.7380     2.8120 os         1 ISX      -0.378600
      6 C3           3.4700     0.4720     1.3650 c3         1 ISX       0.193100
      7 O3           3.9560     1.4280     0.4190 oh         1 ISX      -0.574800
      8 C2           1.9390     0.4740     1.3620 c3         1 ISX      -0.071700
      9 C1           1.4320    -0.4670     2.4540 c3         1 ISX       0.141800
     10 C1A          5.8430     1.6910     3.7740 c3         1 ISX       0.357900
     11 C2A          7.3680     1.6310     3.8750 c3         1 ISX       0.141100
     12 O2A          7.7710     0.3120     4.2480 oh         1 ISX      -0.575800
     13 C3A          7.8390     2.6320     4.9350 c3         1 ISX       0.153100
     14 O3A          9.2660     2.6960     4.9380 oh         1 ISX      -0.585800
     15 C4A          7.2620     4.0110     4.5980 c3         1 ISX       0.140100
     16 O4A          7.5650     4.9280     5.6500 oh         1 ISX      -0.582800
     17 C5A          5.7450     3.8920     4.4420 c3         1 ISX       0.157100
     18 C6           1.4290     0.0000     0.0000 c3         1 ISX       0.227400
     19 C6A          5.1560     5.2700     4.1380 c3         1 ISX       0.223400
     20 O6A          3.7390     5.1640     3.9990 oh         1 ISX      -0.579800
     21 O5A          5.4370     2.9980     3.3750 os         1 ISX      -0.382600
     22 H6          -0.3140    -0.0150    -0.8890 ho         1 ISX       0.389000
     23 H5C2         3.7220     0.1210     4.7750 h1         1 ISX       0.012700
     24 H5           1.4990    -0.5780     4.4830 hn         1 ISX       0.253800
     25 H4           3.6640     1.8530     3.0000 h1         1 ISX       0.071700
     26 H3           3.8290    -0.5160     1.1040 h1         1 ISX       0.002700
     27 HA           4.6050     1.0220    -0.1330 ho         1 ISX       0.388000
     28 H2           1.5810     1.4770     1.5580 hc         1 ISX       0.063700
     29 H1C1         1.8150    -1.4650     2.2750 h1         1 ISX       0.015700
     30 H1C2         0.3490    -0.4840     2.4390 h1         1 ISX       0.015700
     31 H1A          5.4120     1.4640     4.7420 h2         1 ISX       0.012700
     32 H2A          7.8020     1.8900     2.9170 h1         1 ISX       0.029700
     33 HB           8.3530    -0.0360     3.5930 ho         1 ISX       0.400000
     34 H3A          7.4820     2.3200     5.9100 h1         1 ISX       0.025700
     35 HC           9.5900     2.4490     5.7890 ho         1 ISX       0.401000
     36 H4A          7.6930     4.3630     3.6690 h1         1 ISX       0.025700
     37 HD           8.2580     5.5050     5.3740 ho         1 ISX       0.399000
     38 H5A          5.3190     3.5100     5.3620 h1         1 ISX       0.029700
     39 H6C1         1.7900     0.6680    -0.7730 h1         1 ISX      -0.010300
     40 H6C2         1.7900    -1.0030    -0.1920 h1         1 ISX      -0.010300
     41 H6A1         5.3890     5.9500     4.9490 h1         1 ISX      -0.002300
     42 H6A2         5.5810     5.6490     3.2160 h1         1 ISX      -0.002300
     43 H6A          3.3590     6.0260     3.9810 ho         1 ISX       0.389000
     44 H5C1         3.6320    -1.1390     3.5320 h1         1 ISX       0.012700
@<TRIPOS>BOND
     1     1    18 1   
     2     1    22 1   
     3     2     3 1   
     4     2     4 1   
     5     2    23 1   
     6     2    44 1   
     7     3     9 1   
     8     3    24 1   
     9     4     5 1   
    10     4     6 1   
    11     4    25 1   
    12     5    10 1   
    13     6     7 1   
    14     6     8 1   
    15     6    26 1   
    16     7    27 1   
    17     8     9 1   
    18     8    18 1   
    19     8    28 1   
    20     9    29 1   
    21     9    30 1   
    22    10    11 1   
    23    10    21 1   
    24    10    31 1   
    25    11    12 1   
    26    11    13 1   
    27    11    32 1   
    28    12    33 1   
    29    13    14 1   
    30    13    15 1   
    31    13    34 1   
    32    14    35 1   
    33    15    16 1   
    34    15    17 1   
    35    15    36 1   
    36    16    37 1   
    37    17    19 1   
    38    17    21 1   
    39    17    38 1   
    40    18    39 1   
    41    18    40 1   
    42    19    20 1   
    43    19    41 1   
    44    19    42 1   
    45    20    43 1   
@<TRIPOS>SUBSTRUCTURE
     1 ISX         1 TEMP              0 ****  ****    0 ROOT
