@<TRIPOS>MOLECULE
ISY
   23    21     1     0     0
SMALL
bcc


@<TRIPOS>ATOM
      1 P1          2.5830   -1.0550   -0.1520 p5        1 ISY      1.690500
      2 O2          2.2630    0.3050    0.9860 os        1 ISY     -1.256000
      3 P3          1.9020    1.4310    1.9770 p3        1 ISY      2.687000
      4 O4          3.4730   -1.9330    0.6900 o         1 ISY     -0.947833
      5 O5          1.2140   -1.5960   -0.4370 o         1 ISY     -0.947833
      6 O6          3.2730   -0.4170   -1.3200 o         1 ISY     -0.947833
      7 O7          0.9320    1.0740    3.0330 o         1 ISY     -1.183000
      8 O8          1.7870    2.7820    1.3880 o         1 ISY     -1.183000
      9 S9          3.9180    1.6670    3.2860 s         1 ISY     -0.906000
     10 C10         5.2410    0.5790    2.8190 c3        1 ISY     -0.072000
     11 C11         5.0440   -0.8150    3.3720 c3        1 ISY     -0.168000
     12 C12         6.2190   -1.6970    3.1080 c2        1 ISY      0.013000
     13 C13         6.4420   -2.0180    1.6790 c3        1 ISY     -0.245000
     14 C14         6.9870   -2.1980    4.0860 c2        1 ISY     -0.375000
     15 H10         5.3020    0.5350    1.7050 h1        1 ISY      0.064000
     16 H10A        6.1840    1.0260    3.2160 h1        1 ISY      0.064000
     17 H11         4.8330   -0.7610    4.4710 hc        1 ISY      0.128500
     18 H11A        4.1470   -1.2740    2.8490 hc        1 ISY      0.128500
     19 H13         6.8730   -1.1270    1.1560 hc        1 ISY      0.106333
     20 H13A        5.4370   -2.2340    1.1860 hc        1 ISY      0.106333
     21 H13B        7.1370   -2.8810    1.5480 hc        1 ISY      0.106333
     22 H14         6.8130   -1.9720    5.1430 ha        1 ISY      0.068000
     23 H14A        7.8280   -2.8730    3.8880 ha        1 ISY      0.068000
@<TRIPOS>BOND
     1    1    2 1   
     2    1    4 1   
     3    1    5 1   
     4    1    6 1   
     5    2    3 1   
     6    3    7 1   
     7    3    8 1   
     8    9   10 1   
     9   10   11 1   
    10   10   15 1   
    11   10   16 1   
    12   11   12 1   
    13   11   17 1   
    14   11   18 1   
    15   12   13 1   
    16   12   14 1   
    17   13   19 1   
    18   13   20 1   
    19   13   21 1   
    20   14   22 1   
    21   14   23 1   
@<TRIPOS>SUBSTRUCTURE
     1 ISY         1 TEMP              0 ****  ****    0 ROOT
