@<TRIPOS>MOLECULE
molecule
   23    22     1     0     0
SMALL
bcc


@<TRIPOS>ATOM
      1 P1           0.0000     0.0000     0.0000 p5         1 ISY       1.277900
      2 O2           1.6090     0.0000     0.0000 os         1 ISY      -0.678800
      3 P3           2.7280     0.0000     1.1570 p5         1 ISY       1.189800
      4 O4          -0.5370    -0.5200    -1.4260 o          1 ISY      -0.935833
      5 O5          -0.4940    -0.8960     1.0700 o          1 ISY      -0.935833
      6 O6          -0.5360     1.4960     0.2620 o          1 ISY      -0.935833
      7 O7           2.5680    -1.2080     1.9980 o          1 ISY      -0.777000
      8 O8           2.5560     1.3160     2.0700 o          1 ISY      -0.777000
      9 S9           4.6570    -0.0020     0.2780 ss         1 ISY      -0.617500
     10 C10          5.7620    -0.0010     1.7160 c3         1 ISY       0.153700
     11 C11          5.7760    -1.3940     2.3490 c3         1 ISY      -0.064200
     12 C12          6.6940    -1.3930     3.5450 c2         1 ISY      -0.115400
     13 C13          8.1720    -1.6200     3.3590 c3         1 ISY      -0.053900
     14 C14          6.2070    -1.1950     4.7440 c2         1 ISY      -0.253000
     15 H10          6.7650     0.2630     1.4010 h1         1 ISY       0.037700
     16 H10A         5.4100     0.7220     2.4420 h1         1 ISY       0.037700
     17 H11          6.1290    -2.1170     1.6230 hc         1 ISY       0.084200
     18 H11A         4.7730    -1.6570     2.6630 hc         1 ISY       0.084200
     19 H13          8.6990    -0.6810     3.4760 hc         1 ISY       0.021033
     20 H13A         8.5250    -2.3260     4.1000 hc         1 ISY       0.021033
     21 H13B         8.3550    -2.0160     2.3670 hc         1 ISY       0.021033
     22 H14          6.8670    -1.1940     5.6040 ha         1 ISY       0.108000
     23 H14A         5.1440    -1.0310     4.8770 ha         1 ISY       0.108000
@<TRIPOS>BOND
     1     1     2 1
     2     1     4 1
     3     1     5 1
     4     1     6 1
     5     2     3 1
     6     3     7 1
     7     3     8 1
     8     3     9 1
     9     9    10 1
    10    10    11 1
    11    11    12 1
    12    12    13 1
    13    12    14 2
    14    10    15 1
    15    10    16 1
    16    11    17 1
    17    11    18 1
    18    13    19 1
    19    13    20 1
    20    13    21 1
    21    14    22 1
    22    14    23 1
@<TRIPOS>SUBSTRUCTURE
     1 ISY         1 TEMP              0 ****  ****    0 ROOT
