@<TRIPOS>MOLECULE
molecule
   15    15     1     0     0
SMALL
bcc


@<TRIPOS>ATOM
      1 C2           0.0000     0.0000     0.0000 ca         1 ISZ      -0.188300
      2 C4           1.3850     0.0000     0.0000 ca         1 ISZ       0.380200
      3 N1           2.1420     0.0000     1.1210 nb         1 ISZ      -0.629000
      4 C5           1.4740    -0.0010     2.2970 ca         1 ISZ       0.380200
      5 C3           0.0930    -0.0010     2.4040 ca         1 ISZ      -0.188300
      6 C1          -0.6520    -0.0010     1.2290 ca         1 ISZ      -0.113600
      7 C6          -2.1040    -0.0010     1.2860 c          1 ISZ       0.660100
      8 O1          -2.6910    -0.0020     2.3860 o          1 ISZ      -0.501100
      9 N2          -2.7780    -0.0010     0.0640 ne         1 ISZ      -0.264400
     10 N3          -4.0180    -0.0010     0.1900 n2         1 ISZ      -0.333400
     11 H2          -0.5590     0.0000    -0.9280 ha         1 ISZ       0.164000
     12 H4           1.8930     0.0010    -0.9570 h4         1 ISZ       0.024100
     13 H5           2.0550    -0.0020     3.2110 h4         1 ISZ       0.024100
     14 H3          -0.3910    -0.0020     3.3730 ha         1 ISZ       0.164000
     15 HN1         -4.6030    -0.0010    -0.6220 hn         1 ISZ       0.421400
@<TRIPOS>BOND
     1     1     2 ar
     2     1     6 ar
     3     1    11 1
     4     2     3 ar
     5     2    12 1
     6     3     4 ar
     7     4     5 ar
     8     4    13 1
     9     5     6 ar
    10     5    14 1
    11     6     7 1
    12     7     8 2
    13     7     9 1
    14     9    10 2
    15    15    10 1
@<TRIPOS>SUBSTRUCTURE
     1 ISZ         1 TEMP              0 ****  ****    0 ROOT
