@<TRIPOS>MOLECULE
ISZ
   15    15     1     0     0
SMALL
bcc


@<TRIPOS>ATOM
      1 C2           0.0000     0.0000     0.0000 ca         1 ISZ      -0.145300
      2 C4           1.3850     0.0000     0.0000 ca         1 ISZ       0.378700
      3 N1           2.1420     0.0000     1.1210 nb         1 ISZ      -0.548000
      4 C5           1.4740    -0.0010     2.2970 ca         1 ISZ       0.378700
      5 C3           0.0930    -0.0010     2.4040 ca         1 ISZ      -0.145300
      6 C1          -0.6520    -0.0010     1.2290 ca         1 ISZ      -0.150600
      7 C6          -2.1040    -0.0010     1.2860 c          1 ISZ       0.664100
      8 O1          -2.6910    -0.0020     2.3860 o          1 ISZ      -0.578100
      9 N2          -2.7780    -0.0010     0.0640 ne         1 ISZ      -0.232400
     10 N3          -4.0180    -0.0010     0.1900 n2         1 ISZ      -0.180400
     11 H2          -0.5590     0.0000    -0.9280 ha         1 ISZ       0.138000
     12 H4           1.8930     0.0010    -0.9570 h4         1 ISZ      -0.019900
     13 H5           2.0550    -0.0020     3.2110 h4         1 ISZ      -0.019900
     14 H3          -0.3910    -0.0020     3.3730 ha         1 ISZ       0.138000
     15 HN1         -4.4290    -0.0000     1.1020 hn         1 ISZ       0.321400
@<TRIPOS>BOND
     1     1     2 ar  
     2     1     6 ar  
     3     1    11 1   
     4     2     3 ar  
     5     2    12 1   
     6     3     4 ar  
     7     4     5 ar  
     8     4    13 1   
     9     5     6 ar  
    10     5    14 1   
    11     6     7 1   
    12     7     8 2   
    13     7     9 1   
    14     9    10 2   
    15    10    15 1   
@<TRIPOS>SUBSTRUCTURE
     1 ISZ         1 TEMP              0 ****  ****    0 ROOT
