@<TRIPOS>MOLECULE
IT2
   18    18     1     0     0
SMALL
bcc


@<TRIPOS>ATOM
      1 N            0.0000     0.0000     0.0000 n          1 IT2       0.105200
      2 SAA         -2.4550     0.8700    -0.7170 sh         1 IT2      -0.263400
      3 SAB          0.1380     2.0480    -1.6870 s          1 IT2      -0.656400
      4 CAC          1.9540     0.0000     1.4550 c3         1 IT2       0.202900
      5 CAD         -0.1050    -0.9430     2.2440 c3         1 IT2       0.202900
      6 CAE          1.4710     0.0000     0.0000 c3         1 IT2      -0.061000
      7 CAF         -0.6930    -0.9980     0.8290 c3         1 IT2      -0.061000
      8 OAG          1.3180    -1.0680     2.1630 os         1 IT2      -0.401600
      9 CAH         -0.6930     0.8930    -0.7350 cs         1 IT2       0.318000
     10 HSAA        -2.9180     1.8510    -1.4820 hs         1 IT2       0.244800
     11 HAC          3.0280    -0.1410     1.4790 h1         1 IT2       0.023450
     12 HACA         1.6970     0.9440     1.9200 h1         1 IT2       0.023450
     13 HAD         -0.3590     0.0050     2.7040 h1         1 IT2       0.023450
     14 HADA        -0.5060    -1.7580     2.8350 h1         1 IT2       0.023450
     15 HAE          1.8350    -0.8870    -0.5040 h1         1 IT2       0.068700
     16 HAEA         1.8350     0.8870    -0.5040 h1         1 IT2       0.068700
     17 HAF         -0.5420    -1.9860     0.4110 h1         1 IT2       0.068700
     18 HAFA        -1.7510    -0.7690     0.8660 h1         1 IT2       0.068700
@<TRIPOS>BOND
     1     1     6 1   
     2     1     7 1   
     3     1     9 1   
     4     2     9 1   
     5     2    10 1   
     6     3     9 2   
     7     4     6 1   
     8     4     8 1   
     9     4    11 1   
    10     4    12 1   
    11     5     7 1   
    12     5     8 1   
    13     5    13 1   
    14     5    14 1   
    15     6    15 1   
    16     6    16 1   
    17     7    17 1   
    18     7    18 1   
@<TRIPOS>SUBSTRUCTURE
     1 IT2         1 TEMP              0 ****  ****    0 ROOT
