@<TRIPOS>MOLECULE
IT5
   31    38     1     0     0
SMALL
bcc


@<TRIPOS>ATOM
      1 N11          1.5710    -3.2020     1.1430 n1         1 IT5       0.000000
      2 N22          0.0000     0.0000     0.0000 np         1 IT5       0.040000
      3 SAB         -1.8750    -2.1310    -0.2330 s4         1 IT5       0.209000
      4 SAC         -0.7150    -0.7830    -2.6090 sh         1 IT5       0.145000
      5 CAD          1.6970    -2.4360     1.5270 c1         1 IT5      -0.294000
      6 CAE          2.7750    -1.2450     6.2190 ca         1 IT5      -0.087000
      7 CAF          1.5730    -1.8520     5.9060 ca         1 IT5      -0.057000
      8 CAG          3.4060    -0.4860     5.1690 ca         1 IT5      -0.057000
      9 CAH          0.8280    -1.8440     4.6550 ca         1 IT5      -0.115500
     10 CAI          2.9550    -0.9460     4.3640 ca         1 IT5      -0.115500
     11 CAJ          1.4680     0.0000     0.0000 c3         1 IT5      -0.491000
     12 CAK         -0.7070    -1.0340     0.7680 DU         1 IT5       0.058000
     13 CAL          1.9620     0.0000     1.4510 DU         1 IT5      -0.173000
     14 CAM         -0.1850    -1.0200     2.2090 DU         1 IT5      -0.300000
     15 CAN         -1.0800    -1.1050    -0.9230 cx         1 IT5      -0.448000
     16 CAO          1.8410    -1.2010     3.6170 ca         1 IT5      -0.169000
     17 CAQ          1.3330    -1.1780     2.1990 DU         1 IT5       0.748000
     18 HSAC        -1.8640    -0.6970    -3.2680 hs         1 IT5       0.013000
     19 HAE          3.1640    -1.6360     7.1510 ha         1 IT5       0.102000
     20 HAF          0.8260    -2.2930     6.5540 ha         1 IT5       0.099500
     21 HAG          4.4050    -0.1040     5.3430 ha         1 IT5       0.099500
     22 HAH         -0.1090    -2.2010     4.2470 ha         1 IT5       0.097000
     23 HAI          3.0050    -0.4100     3.4240 ha         1 IT5       0.097000
     24 HAJ          1.9240     0.5890    -0.7870 h1         1 IT5       0.167000
     25 HAJA         1.4800     0.6020     0.9010 DU         1 IT5       0.252000
     26 HAK         -0.6560    -0.6190     1.7680 DU         1 IT5       0.131000
     27 HAKA        -1.7190    -0.9420     0.3930 DU         1 IT5       0.048000
     28 HAL          3.0300    -0.0170     1.2750 ha         1 IT5       0.096000
     29 HALA         1.9590    -1.0330     1.7770 DU         1 IT5       0.088000
     30 HAM         -0.6660    -1.6350     2.9600 ha         1 IT5      -0.091500
     31 HAMA         0.8800    -0.8950     2.3650 ha         1 IT5      -0.091500
@<TRIPOS>BOND
     1     1     5 1   
     2     2    11 1   
     3     2    12 1   
     4     2    15 1   
     5     3    12 1   
     6     3    15 1   
     7     3    27 1   
     8     4    15 1   
     9     4    18 1   
    10     5    17 1   
    11     6     7 1   
    12     6     8 1   
    13     6    19 1   
    14     7     9 1   
    15     7    20 1   
    16     8    10 1   
    17     8    21 1   
    18     9    16 1   
    19     9    22 1   
    20    10    16 1   
    21    10    23 1   
    22    11    13 1   
    23    11    24 1   
    24    11    25 1   
    25    12    14 1   
    26    12    15 1   
    27    12    26 1   
    28    12    27 1   
    29    13    17 1   
    30    13    25 1   
    31    13    28 1   
    32    13    29 1   
    33    14    17 1   
    34    14    26 1   
    35    14    30 1   
    36    14    31 1   
    37    16    17 1   
    38    17    29 1   
@<TRIPOS>SUBSTRUCTURE
     1 IT5         1 TEMP              0 ****  ****    0 ROOT
