@<TRIPOS>MOLECULE
molecule
   31    32     1     0     0
SMALL
bcc


@<TRIPOS>ATOM
      1 N11          1.5710    -3.2020     1.1430 n1         1 IT5      -0.336800
      2 N22          0.0000     0.0000     0.0000 n          1 IT5      -0.303800
      3 SAB         -1.8750    -2.1310    -0.2330 s          1 IT5       0.014600
      4 SAC         -0.7150    -0.7830    -2.6090 sh         1 IT5      -0.213400
      5 CAD          1.6970    -2.4360     1.5270 c1         1 IT5       0.283700
      6 CAE          2.7750    -1.2450     6.2190 ca         1 IT5      -0.065000
      7 CAF          1.5730    -1.8520     5.9060 ca         1 IT5      -0.091000
      8 CAG          3.4060    -0.4860     5.1690 ca         1 IT5      -0.091000
      9 CAH          0.8280    -1.8440     4.6550 ca         1 IT5      -0.100500
     10 CAI          2.9550    -0.9460     4.3640 ca         1 IT5      -0.100500
     11 CAJ          1.4680     0.0000     0.0000 c3         1 IT5      -0.270500
     12 CAK         -0.7070    -1.0340     0.7680 c3         1 IT5      -0.270500
     13 CAL          1.9620     0.0000     1.4510 c3         1 IT5      -0.297400
     14 CAM         -0.1850    -1.0200     2.2090 c3         1 IT5      -0.297400
     15 CAN         -1.0800    -1.1050    -0.9230 cs         1 IT5      -0.098000
     16 CAO          1.8410    -1.2010     3.6170 ca         1 IT5      -0.237300
     17 CAQ          1.3330    -1.1780     2.1990 c3         1 IT5       0.241400
     18 HSAC        -1.8640    -0.6970    -3.2680 hs         1 IT5       0.151800
     19 HAE          3.1640    -1.6360     7.1510 ha         1 IT5       0.145000
     20 HAF          0.8260    -2.2930     6.5540 ha         1 IT5       0.140500
     21 HAG          4.4050    -0.1040     5.3430 ha         1 IT5       0.140500
     22 HAH         -0.1090    -2.2010     4.2470 ha         1 IT5       0.143500
     23 HAI          3.0050    -0.4100     3.4240 ha         1 IT5       0.143500
     24 HAJ          1.9240     0.5890    -0.7870 h1         1 IT5       0.210450
     25 HAJA         1.4800     0.6020     0.9010 h1         1 IT5       0.210450
     26 HAK         -0.6560    -0.6190     1.7680 h1         1 IT5       0.210450
     27 HAKA        -1.7190    -0.9420     0.3930 h1         1 IT5       0.210450
     28 HAL          3.0300    -0.0170     1.2750 hc         1 IT5       0.131450
     29 HALA         1.9590    -1.0330     1.7770 hc         1 IT5       0.131450
     30 HAM         -0.6660    -1.6350     2.9600 hc         1 IT5       0.131450
     31 HAMA         0.8800    -0.8950     2.3650 hc         1 IT5       0.131450
@<TRIPOS>BOND
     1     1     5 3
     2    12     2 1
     3    11     2 1
     4     2    15 1
     5    15     3 2
     6    15     4 1
     7     4    18 1
     8     5    17 1
     9     7     6 ar
    10     6     8 ar
    11     6    19 1
    12     9     7 ar
    13     7    20 1
    14    10     8 ar
    15     8    21 1
    16     9    16 ar
    17     9    22 1
    18    16    10 ar
    19    10    23 1
    20    13    11 1
    21    11    24 1
    22    11    25 1
    23    14    12 1
    24    12    26 1
    25    12    27 1
    26    17    13 1
    27    13    28 1
    28    13    29 1
    29    17    14 1
    30    14    30 1
    31    14    31 1
    32    17    16 1
@<TRIPOS>SUBSTRUCTURE
     1 IT5         1 TEMP              0 ****  ****    0 ROOT
