@<TRIPOS>MOLECULE
molecule
   25    25     1     0     0
SMALL
bcc


@<TRIPOS>ATOM
      1 C4           0.0000     0.0000     0.0000 c3         1 IT9      -0.127500
      2 C5           1.5350     0.0000     0.0000 c3         1 IT9      -0.069400
      3 C6           2.0330     0.0000     1.4440 c3         1 IT9      -0.053200
      4 C7          -0.5160    -0.0350    -1.4160 c2         1 IT9      -0.107400
      5 C8          -1.3060    -1.0070    -1.8010 c2         1 IT9      -0.218000
      6 C9          -0.1210     1.0460    -2.3890 c3         1 IT9      -0.048900
      7 C1           1.4100     1.1130     2.2320 c2         1 IT9      -0.059400
      8 C2           0.2690     1.6970     1.8870 ce         1 IT9      -0.263200
      9 C3          -0.4510     1.2770     0.6800 c          1 IT9       0.572300
     10 H           -0.3660    -0.8570     0.5520 hc         1 IT9       0.078700
     11 H6           1.8960    -0.8870    -0.5070 hc         1 IT9       0.054200
     12 H5           1.8960     0.8870    -0.5070 hc         1 IT9       0.054200
     13 H7           3.1090     0.1240     1.4460 hc         1 IT9       0.057700
     14 H8           1.7780    -0.9460     1.9060 hc         1 IT9       0.057700
     15 H9          -1.6770    -1.0330    -2.8190 ha         1 IT9       0.113500
     16 H10         -1.5890    -1.7840    -1.1020 ha         1 IT9       0.113500
     17 H12          0.2840     1.8900    -1.8450 hc         1 IT9       0.043367
     18 H13          0.6280     0.6620    -3.0710 hc         1 IT9       0.043367
     19 H11         -0.9920     1.3620    -2.9500 hc         1 IT9       0.043367
     20 H1           2.8820     0.8820     3.7530 hc         1 IT9       0.048700
     21 H2           1.3960     1.6820     4.2840 hc         1 IT9       0.048700
     22 H3           2.5640     2.5590     3.2860 hc         1 IT9       0.048700
     23 H4          -0.1340     2.4930     2.5020 ha         1 IT9       0.150000
     24 C            2.1120     1.5930     3.4760 c3         1 IT9      -0.066900
     25 O           -1.3750     1.9280     0.2410 o          1 IT9      -0.516100
@<TRIPOS>BOND
     1    24     7 1
     2     6     4 1
     3     3     7 1
     4     3     2 1
     5     7     8 2
     6     4     5 2
     7     4     1 1
     8     8     9 1
     9     2     1 1
    10     1     9 1
    11     9    25 2
    12     1    10 1
    13     2    11 1
    14     2    12 1
    15     3    13 1
    16     3    14 1
    17     5    15 1
    18     5    16 1
    19     6    17 1
    20     6    18 1
    21     6    19 1
    22    24    20 1
    23    24    21 1
    24    24    22 1
    25     8    23 1
@<TRIPOS>SUBSTRUCTURE
     1 IT9         1 TEMP              0 ****  ****    0 ROOT
