@<TRIPOS>MOLECULE
ITA
   36    38     1     0     0
SMALL
bcc


@<TRIPOS>ATOM
      1 C1           0.0000     0.0000     0.0000 ca         1 ITA      -0.039000
      2 C2           1.4040     0.0000     0.0000 ca         1 ITA      -0.087000
      3 C3           2.1240     0.0000     1.1920 ca         1 ITA      -0.114000
      4 C4           1.4500    -0.0000     2.4070 ca         1 ITA      -0.119000
      5 C5           0.0540    -0.0000     2.4310 ca         1 ITA      -0.074000
      6 C6          -0.7040    -0.0000     1.2380 ca         1 ITA       0.007000
      7 C7          -2.1120    -0.0010     1.1780 ca         1 ITA      -0.073600
      8 C8          -3.0730    -0.0010     2.3190 c          1 ITA       0.734100
      9 N9          -4.4040    -0.0040     1.7820 n          1 ITA      -0.245200
     10 C10         -5.5990    -0.0080     2.6380 c3         1 ITA       0.009000
     11 C11         -5.9840     1.4110     2.9290 c          1 ITA       0.963600
     12 O12         -5.4230     2.4150     2.5170 o          1 ITA      -0.890300
     13 O13         -7.0760     1.4380     3.7380 o          1 ITA      -0.890300
     14 S14         -4.4980    -0.0040     0.0750 sy         1 ITA       0.982900
     15 O15         -4.9960     1.2690    -0.3980 o          1 ITA      -0.524300
     16 O16         -4.9930    -1.2790    -0.3990 o          1 ITA      -0.524300
     17 C17         -2.7610    -0.0020    -0.0630 ca         1 ITA      -0.063500
     18 C18         -2.0930    -0.0030    -1.2680 ca         1 ITA      -0.048600
     19 C19         -2.7750    -0.0040    -2.5530 c          1 ITA       0.684700
     20 O20         -2.0360    -0.6390    -3.5140 os         1 ITA      -0.380900
     21 C21         -2.6030    -0.7050    -4.8260 c3         1 ITA       0.104400
     22 C22         -1.6650    -1.4320    -5.7490 c          1 ITA       0.981600
     23 O23         -0.5700    -1.8810    -5.4480 o          1 ITA      -0.896800
     24 O24         -2.2070    -1.5260    -6.9890 o          1 ITA      -0.896800
     25 O25         -3.8850     0.5050    -2.7570 o          1 ITA      -0.559000
     26 C26         -0.7020    -0.0010    -1.2250 ca         1 ITA      -0.034000
     27 O27         -2.7920     0.0010     3.5040 o          1 ITA      -0.637500
     28 H211        -2.7680     0.2990    -5.1980 h1         1 ITA       0.011200
     29 H212        -3.5480    -1.2340    -4.7840 h1         1 ITA       0.011200
     30 H26         -0.1450     0.0000    -2.1540 ha         1 ITA       0.135000
     31 H2           1.9360     0.0000    -0.9430 ha         1 ITA       0.107000
     32 H3           3.2070     0.0000     1.1720 ha         1 ITA       0.091000
     33 H4           2.0080    -0.0000     3.3350 ha         1 ITA       0.094000
     34 H5          -0.4590    -0.0000     3.3850 ha         1 ITA       0.135000
     35 H101        -6.4120    -0.5080     2.1260 h1         1 ITA       0.023700
     36 H102        -5.3810    -0.5230     3.5660 h1         1 ITA       0.023700
@<TRIPOS>BOND
     1     1     2 ar  
     2     1     6 ar  
     3     1    26 ar  
     4     2     3 ar  
     5     2    31 1   
     6     3     4 ar  
     7     3    32 1   
     8     4     5 ar  
     9     4    33 1   
    10     5     6 ar  
    11     5    34 1   
    12     6     7 ar  
    13     7     8 1   
    14     7    17 ar  
    15     8     9 1   
    16     8    27 2   
    17     9    10 1   
    18     9    14 1   
    19    10    11 1   
    20    10    35 1   
    21    10    36 1   
    22    11    12 1   
    23    11    13 1   
    24    14    15 2   
    25    14    16 2   
    26    14    17 1   
    27    17    18 ar  
    28    18    19 1   
    29    18    26 ar  
    30    19    20 1   
    31    19    25 2   
    32    20    21 1   
    33    21    22 1   
    34    21    28 1   
    35    21    29 1   
    36    22    23 1   
    37    22    24 1   
    38    26    30 1   
@<TRIPOS>SUBSTRUCTURE
     1 ITA         1 TEMP              0 ****  ****    0 ROOT
