@<TRIPOS>MOLECULE
ITB
   30    32     1     0     0
SMALL
bcc


@<TRIPOS>ATOM
      1 C1           0.0000     0.0000     0.0000 ca         1 ITB      -0.007000
      2 C10          1.4090     0.0000     0.0000 ca         1 ITB      -0.101600
      3 C14          2.3200     0.0000     1.1810 c          1 ITB       0.740100
      4 O19          1.9890    -0.0030     2.3530 o          1 ITB      -0.659500
      5 N15          3.6730     0.0020     0.7020 n          1 ITB      -0.259200
      6 C20          4.8310     0.0050     1.6080 c3         1 ITB       0.011000
      7 C21          5.2020    -1.4140     1.9150 c          1 ITB       0.966600
      8 O23          6.2580    -1.4420     2.7690 o          1 ITB      -0.896800
      9 O22          4.6590    -2.4170     1.4780 o          1 ITB      -0.896800
     10 S16          3.8400     0.0030    -1.0000 sy         1 ITB       0.988900
     11 O18          4.3550     1.2780    -1.4510 o          1 ITB      -0.525300
     12 O17          4.3570    -1.2700    -1.4520 o          1 ITB      -0.525300
     13 C9           2.1100     0.0020    -1.2120 ca         1 ITB      -0.060500
     14 C8           1.4940     0.0030    -2.4440 ca         1 ITB      -0.001600
     15 C11          2.2310     0.0040    -3.6990 c          1 ITB       0.957200
     16 O13          3.3450    -0.4970    -3.8760 o          1 ITB      -0.868800
     17 O12          1.5530     0.6330    -4.6980 o          1 ITB      -0.868800
     18 C7           0.1030     0.0020    -2.4610 ca         1 ITB      -0.066000
     19 C6          -0.6510     0.0000    -1.2670 ca         1 ITB      -0.040000
     20 C5          -2.0540     0.0010    -1.3270 ca         1 ITB      -0.098000
     21 C4          -2.8240     0.0010    -0.1660 ca         1 ITB      -0.131000
     22 C3          -2.2020     0.0000     1.0760 ca         1 ITB      -0.146000
     23 C2          -0.8090    -0.0000     1.1600 ca         1 ITB      -0.069000
     24 H201         4.5730     0.5210     2.5250 h1         1 ITB       0.018700
     25 H202         5.6650     0.5050     1.1310 h1         1 ITB       0.018700
     26 H7          -0.4140     0.0010    -3.4130 ha         1 ITB       0.129000
     27 H5          -2.5450     0.0010    -2.2920 ha         1 ITB       0.095000
     28 H4          -3.9050     0.0010    -0.2320 ha         1 ITB       0.081000
     29 H3          -2.7990     0.0000     1.9800 ha         1 ITB       0.086000
     30 H2          -0.3370    -0.0010     2.1350 ha         1 ITB       0.129000
@<TRIPOS>BOND
     1     1     2 ar  
     2     1    19 ar  
     3     1    23 ar  
     4     2     3 1   
     5     2    13 ar  
     6     3     4 2   
     7     3     5 1   
     8     5     6 1   
     9     5    10 1   
    10     6     7 1   
    11     6    24 1   
    12     6    25 1   
    13     7     8 1   
    14     7     9 1   
    15    10    11 2   
    16    10    12 2   
    17    10    13 1   
    18    13    14 ar  
    19    14    15 1   
    20    14    18 ar  
    21    15    16 1   
    22    15    17 1   
    23    18    19 ar  
    24    18    26 1   
    25    19    20 ar  
    26    20    21 ar  
    27    20    27 1   
    28    21    22 ar  
    29    21    28 1   
    30    22    23 ar  
    31    22    29 1   
    32    23    30 1   
@<TRIPOS>SUBSTRUCTURE
     1 ITB         1 TEMP              0 ****  ****    0 ROOT
