@<TRIPOS>MOLECULE
molecule
   57    60     1     0     0
SMALL
bcc


@<TRIPOS>ATOM
      1 C1           1.5160     0.0000     0.0000 c          1 ITC       0.586300
      2 O1           2.1400    -0.6960    -0.7740 o          1 ITC      -0.483100
      3 C2           2.2050     0.8680     0.9570 ce         1 ITC      -0.380400
      4 C2'          3.6510     1.1060     0.8220 c          1 ITC       0.521300
      5 O2'          4.0640     1.8750    -0.0250 o          1 ITC      -0.382100
      6 N2'          4.5180     0.4740     1.6380 nz         1 ITC      -0.680400
      7 C3           1.5060     1.4590     1.9810 c2         1 ITC       0.226900
      8 O3           2.1680     2.2360     2.8500 oh         1 ITC      -0.528100
      9 C4           0.0290     1.2680     2.1610 c3         1 ITC       0.175700
     10 N4          -0.6770     2.4250     1.5940 n3         1 ITC      -0.682600
     11 C4'         -2.1150     2.3600     1.8880 c3         1 ITC       0.133100
     12 C4D         -0.0970     3.6850     2.0790 c3         1 ITC       0.133100
     13 C4A         -0.4580     0.0000     1.4700 c3         1 ITC      -0.349700
     14 C5           0.0930    -1.2380     2.1750 c3         1 ITC      -0.080400
     15 C5A         -0.5160    -2.4970     1.5530 c3         1 ITC      -0.008700
     16 C6          -0.0200    -3.7310     2.3100 c3         1 ITC       0.199100
     17 O6           1.4270    -3.8320     2.2030 os         1 ITC      -0.394900
     18 C6'         -0.4340    -3.6470     3.7800 c3         1 ITC      -0.094100
     19 C6A         -0.5800    -4.9830     1.6820 ca         1 ITC      -0.078300
     20 C7          -1.8580    -5.4500     1.4890 ca         1 ITC       0.004400
     21 Cl7         -3.2160    -4.5100     2.0250 cl         1 ITC      -0.092400
     22 C8          -2.0650    -6.6720     0.8650 ca         1 ITC      -0.039000
     23 C9          -0.9900    -7.4260     0.4350 ca         1 ITC      -0.211000
     24 C10          0.3050    -6.9680     0.6240 ca         1 ITC       0.224100
     25 O10          1.3590    -7.7090     0.2020 oh         1 ITC      -0.462100
     26 C6B          0.5190    -5.7330     1.2540 ca         1 ITC      -0.224600
     27 C5B         -0.0980    -2.5980     0.0830 c3         1 ITC      -0.290400
     28 C12         -0.4650    -1.3080    -0.6170 c          1 ITC       0.597100
     29 O12         -1.1080    -1.3150    -1.6400 o          1 ITC      -0.486100
     30 C4B          0.0000     0.0000     0.0000 c3         1 ITC       0.087800
     31 O4B         -0.5120     1.1360    -0.7000 oh         1 ITC      -0.533800
     32 C11          1.7410    -4.9880     1.5930 c          1 ITC       0.753200
     33 H2'1         4.0130     0.0110     2.3670 hn         1 ITC       0.481800
     34 H2'2         5.0390    -0.2000     1.1130 hn         1 ITC       0.481800
     35 H3           2.5940     2.9370     2.3840 ho         1 ITC       0.457000
     36 H4          -0.1890     1.1990     3.2200 h1         1 ITC       0.077700
     37 H4A         -0.5440     0.4770     2.4390 hc         1 ITC       0.310700
     38 H4'1        -2.3740     1.3170     1.7490 h1         1 ITC       0.053700
     39 H4'2        -2.3060     2.6640     2.9100 h1         1 ITC       0.053700
     40 H4'3        -2.6710     2.9820     1.1970 h1         1 ITC       0.053700
     41 H4D1        -0.8410     4.4700     2.0220 h1         1 ITC       0.053700
     42 H4D2         0.2220     3.5630     3.1070 h1         1 ITC       0.053700
     43 H4D3         0.7550     3.9500     1.4650 h1         1 ITC       0.053700
     44 H51C         1.1700    -1.2660     2.0610 hc         1 ITC       0.037200
     45 H52C        -0.1630    -1.1970     3.2260 hc         1 ITC       0.037200
     46 H5A         -1.5960    -2.4410     1.6150 hc         1 ITC       0.079700
     47 H5B1        -1.1560    -2.6870     0.2970 hc         1 ITC       0.126200
     48 H5B2         0.1520    -3.5170    -0.4330 hc         1 ITC       0.126200
     49 H6'1        -1.4190    -3.2030     3.8530 hc         1 ITC       0.059367
     50 H6'2         0.2790    -3.0370     4.3210 hc         1 ITC       0.059367
     51 H6'3        -0.4540    -4.6430     4.2070 hc         1 ITC       0.059367
     52 H8          -3.0730    -7.0380     0.7160 ha         1 ITC       0.166000
     53 H9          -1.1600    -8.3820    -0.0460 ha         1 ITC       0.159000
     54 H10          1.0940    -8.6100     0.1150 ho         1 ITC       0.436000
     55 H4B         -0.4610     0.9820    -1.6280 ho         1 ITC       0.427000
     56 O11          2.8720    -5.3640     1.3570 o          1 ITC      -0.546500
     57 H2'3         5.1460     1.1420     2.0390 hn         1 ITC       0.481800
@<TRIPOS>BOND
     1     1     2 2
     2     1     3 1
     3     1    30 1
     4     3     4 1
     5     3     7 2
     6     4     5 2
     7     4     6 1
     8     7     8 1
     9     7     9 1
    10     9    10 1
    11     9    13 1
    12    10    11 1
    13    10    12 1
    14    13    14 1
    15    13    30 1
    16    14    15 1
    17    15    16 1
    18    15    27 1
    19    16    17 1
    20    16    18 1
    21    16    19 1
    22    17    32 1
    23    19    20 ar
    24    19    26 ar
    25    20    21 1
    26    20    22 ar
    27    22    23 ar
    28    23    24 ar
    29    24    25 1
    30    24    26 ar
    31    26    32 1
    32    56    32 2
    33    27    28 1
    34    28    29 2
    35    28    30 1
    36    30    31 1
    37     6    33 1
    38     6    34 1
    39     8    35 1
    40     9    36 1
    41    13    37 1
    42    11    38 1
    43    11    39 1
    44    11    40 1
    45    12    41 1
    46    12    42 1
    47    12    43 1
    48    14    44 1
    49    14    45 1
    50    15    46 1
    51    27    47 1
    52    27    48 1
    53    18    49 1
    54    18    50 1
    55    18    51 1
    56    22    52 1
    57    23    53 1
    58    25    54 1
    59    31    55 1
    60    57     6 1
@<TRIPOS>SUBSTRUCTURE
     1 ITC         1 TEMP              0 ****  ****    0 ROOT
