@<TRIPOS>MOLECULE
ITD
   61    64     1     0     0
SMALL
bcc


@<TRIPOS>ATOM
      1 C1           0.0000     0.0000     0.0000 c3         1 ITD       0.013400
      2 N1           2.0450     0.0000     1.3730 n2         1 ITD      -0.277200
      3 S1           3.6910     1.8570     2.8800 ss         1 ITD      -0.302800
      4 C2           1.5300     0.0000     0.0000 c3         1 ITD       0.111200
      5 N2           2.8410     1.9190     0.5160 na         1 ITD       0.183900
      6 S2           4.9360     3.4380    -1.6030 ss         1 ITD      -0.332300
      7 C3           2.0650    -1.2070    -0.7740 c3         1 ITD       0.013400
      8 N3           4.2560     5.9320    -2.4600 nu         1 ITD      -0.488200
      9 C4           2.7520     1.0770     1.5870 cc         1 ITD       0.075600
     10 N4           5.9160     4.8320    -3.6520 n2         1 ITD      -0.609900
     11 C5           4.1400     3.2600     1.8980 cc         1 ITD      -0.024100
     12 C6           2.0680     1.3100    -0.5990 c3         1 ITD      -0.041700
     13 C7           3.5840     3.0650     0.7210 cd         1 ITD      -0.124600
     14 C8           3.7580     4.0730    -0.3850 c3         1 ITD       0.117000
     15 C9           5.0610     4.8360    -2.6670 c2         1 ITD       0.523100
     16 C10          4.3600     7.0950    -3.3450 c3         1 ITD       0.140500
     17 C11          3.8830     8.3450    -2.6040 c3         1 ITD      -0.040900
     18 C12          3.9900     9.5600    -3.5280 c3         1 ITD      -0.017400
     19 C13          3.1190     9.3370    -4.7660 c3         1 ITD      -0.028400
     20 C14          3.5970     8.0870    -5.5080 c3         1 ITD      -0.017400
     21 C15          3.4890     6.8730    -4.5830 c3         1 ITD      -0.040900
     22 C16          6.6910     3.6230    -3.9450 c3         1 ITD       0.135500
     23 C17          6.2950     3.0850    -5.3210 c3         1 ITD      -0.021900
     24 C18          7.1040     1.8220    -5.6270 c3         1 ITD      -0.023400
     25 C19          8.5960     2.1590    -5.6210 c3         1 ITD      -0.025400
     26 C20          8.9920     2.6980    -4.2440 c3         1 ITD      -0.023400
     27 C21          8.1830     3.9600    -3.9380 c3         1 ITD      -0.021900
     28 H1          -0.3610     0.0530    -1.0200 hc         1 ITD       0.012367
     29 H1A         -0.3610     0.8570     0.5560 hc         1 ITD       0.012367
     30 H1B         -0.3610    -0.9100     0.4640 hc         1 ITD       0.012367
     31 H3           1.7160    -1.1620    -1.7990 hc         1 ITD       0.012367
     32 H3A          1.7100    -2.1190    -0.3110 hc         1 ITD       0.012367
     33 H3B          3.1480    -1.1930    -0.7610 hc         1 ITD       0.012367
     34 HN3          3.5800     5.9240    -1.7210 hn         1 ITD       0.295800
     35 H5           4.1440     4.2500     2.3370 h4         1 ITD       0.168000
     36 H6           1.2420     1.9570    -0.8690 h1         1 ITD       0.041200
     37 H6A          2.7300     1.0910    -1.4280 h1         1 ITD       0.041200
     38 H8           4.1320     5.0020     0.0290 h1         1 ITD       0.050200
     39 H8A          2.8030     4.2510    -0.8650 h1         1 ITD       0.050200
     40 H10          5.3900     7.2300    -3.6510 h1         1 ITD       0.065700
     41 H11          2.8510     8.2130    -2.3020 hc         1 ITD       0.018700
     42 H11A         4.5030     8.5030    -1.7290 hc         1 ITD       0.018700
     43 H12          3.6490    10.4430    -3.0020 hc         1 ITD       0.016700
     44 H12A         5.0220     9.6900    -3.8320 hc         1 ITD       0.016700
     45 H13          2.0880     9.2030    -4.4610 hc         1 ITD       0.013700
     46 H13A         3.1980    10.1970    -5.4210 hc         1 ITD       0.013700
     47 H14          2.9780     7.9290    -6.3830 hc         1 ITD       0.016700
     48 H14A         4.6290     8.2200    -5.8090 hc         1 ITD       0.016700
     49 H15          2.4570     6.7430    -4.2790 hc         1 ITD       0.018700
     50 H15A         3.8290     5.9890    -5.1090 hc         1 ITD       0.018700
     51 H16          6.4900     2.8690    -3.1930 h1         1 ITD       0.031700
     52 H17          6.5020     3.8360    -6.0740 hc         1 ITD       0.020450
     53 H17A         5.2390     2.8450    -5.3230 hc         1 ITD       0.020450
     54 H18          6.8240     1.4440    -6.6030 hc         1 ITD       0.013450
     55 H18A         6.9010     1.0730    -4.8720 hc         1 ITD       0.013450
     56 H19          8.7980     2.9110    -6.3730 hc         1 ITD       0.013200
     57 H19A         9.1670     1.2640    -5.8350 hc         1 ITD       0.013200
     58 H20         10.0480     2.9380    -4.2420 hc         1 ITD       0.013450
     59 H20A         8.7860     1.9470    -3.4900 hc         1 ITD       0.013450
     60 H21          8.3870     4.7090    -4.6940 hc         1 ITD       0.020450
     61 H21A         8.4630     4.3380    -2.9620 hc         1 ITD       0.020450
@<TRIPOS>BOND
     1     1     4 1   
     2     1    28 1   
     3     1    29 1   
     4     1    30 1   
     5     2     4 1   
     6     2     9 2   
     7     3     9 1   
     8     3    11 1   
     9     4     7 1   
    10     4    12 1   
    11     5     9 1   
    12     5    12 1   
    13     5    13 1   
    14     6    14 1   
    15     6    15 1   
    16     7    31 1   
    17     7    32 1   
    18     7    33 1   
    19     8    15 1   
    20     8    16 1   
    21     8    34 1   
    22    10    15 2   
    23    10    22 1   
    24    11    13 2   
    25    11    35 1   
    26    12    36 1   
    27    12    37 1   
    28    13    14 1   
    29    14    38 1   
    30    14    39 1   
    31    16    17 1   
    32    16    21 1   
    33    16    40 1   
    34    17    18 1   
    35    17    41 1   
    36    17    42 1   
    37    18    19 1   
    38    18    43 1   
    39    18    44 1   
    40    19    20 1   
    41    19    45 1   
    42    19    46 1   
    43    20    21 1   
    44    20    47 1   
    45    20    48 1   
    46    21    49 1   
    47    21    50 1   
    48    22    23 1   
    49    22    27 1   
    50    22    51 1   
    51    23    24 1   
    52    23    52 1   
    53    23    53 1   
    54    24    25 1   
    55    24    54 1   
    56    24    55 1   
    57    25    26 1   
    58    25    56 1   
    59    25    57 1   
    60    26    27 1   
    61    26    58 1   
    62    26    59 1   
    63    27    60 1   
    64    27    61 1   
@<TRIPOS>SUBSTRUCTURE
     1 ITD         1 TEMP              0 ****  ****    0 ROOT
