@<TRIPOS>MOLECULE
molecule
   61    64     1     0     0
SMALL
bcc


@<TRIPOS>ATOM
      1 C1           0.0000     0.0000     0.0000 c3         1 ITD      -0.076100
      2 N1           2.0450     0.0000     1.3730 n2         1 ITD      -0.332200
      3 S1           3.6910     1.8570     2.8800 ss         1 ITD      -0.183800
      4 C2           1.5300     0.0000     0.0000 c3         1 ITD       0.119200
      5 N2           2.8410     1.9190     0.5160 na         1 ITD      -0.210100
      6 S2           4.9360     3.4380    -1.6030 ss         1 ITD      -0.293300
      7 C3           2.0650    -1.2070    -0.7740 c3         1 ITD      -0.076100
      8 N3           4.2560     5.9320    -2.4600 nu         1 ITD      -0.885200
      9 C4           2.7520     1.0770     1.5870 cc         1 ITD       0.177600
     10 N4           5.9160     4.8320    -3.6520 n2         1 ITD      -0.686900
     11 C5           4.1400     3.2600     1.8980 cd         1 ITD      -0.119100
     12 C6           2.0680     1.3100    -0.5990 c3         1 ITD       0.027300
     13 C7           3.5840     3.0650     0.7210 cc         1 ITD       0.020400
     14 C8           3.7580     4.0730    -0.3850 c3         1 ITD       0.036000
     15 C9           5.0610     4.8360    -2.6670 c2         1 ITD       0.679100
     16 C10          4.3600     7.0950    -3.3450 c3         1 ITD       0.249500
     17 C11          3.8830     8.3450    -2.6040 c3         1 ITD      -0.094900
     18 C12          3.9900     9.5600    -3.5280 c3         1 ITD      -0.075900
     19 C13          3.1190     9.3370    -4.7660 c3         1 ITD      -0.083400
     20 C14          3.5970     8.0870    -5.5080 c3         1 ITD      -0.075900
     21 C15          3.4890     6.8730    -4.5830 c3         1 ITD      -0.094900
     22 C16          6.6910     3.6230    -3.9450 c3         1 ITD       0.146500
     23 C17          6.2950     3.0850    -5.3210 c3         1 ITD      -0.068400
     24 C18          7.1040     1.8220    -5.6270 c3         1 ITD      -0.080900
     25 C19          8.5960     2.1590    -5.6210 c3         1 ITD      -0.080400
     26 C20          8.9920     2.6980    -4.2440 c3         1 ITD      -0.080900
     27 C21          8.1830     3.9600    -3.9380 c3         1 ITD      -0.068400
     28 H1          -0.3610     0.8570     0.5560 hc         1 ITD       0.044700
     29 H1A         -0.3610    -0.9100     0.4640 hc         1 ITD       0.044700
     30 H1B         -0.3610     0.0530    -1.0200 hc         1 ITD       0.044700
     31 H3           3.1480    -1.1930    -0.7610 hc         1 ITD       0.044700
     32 H3A          1.7160    -1.1620    -1.7990 hc         1 ITD       0.044700
     33 H3B          1.7100    -2.1190    -0.3110 hc         1 ITD       0.044700
     34 HN3          3.5800     5.9240    -1.7210 hn         1 ITD       0.437800
     35 H5           5.1410     3.6690     1.9630 h4         1 ITD       0.198000
     36 H6           2.7300     1.0910    -1.4280 h1         1 ITD       0.066700
     37 H6A          1.2420     1.9570    -0.8690 h1         1 ITD       0.066700
     38 H8           2.8030     4.2510    -0.8650 h1         1 ITD       0.080700
     39 H8A          4.1320     5.0020     0.0290 h1         1 ITD       0.080700
     40 H10          5.3900     7.2300    -3.6510 h1         1 ITD       0.086700
     41 H11          4.5030     8.5030    -1.7290 hc         1 ITD       0.045950
     42 H11A         2.8510     8.2130    -2.3020 hc         1 ITD       0.045950
     43 H12          3.6490    10.4430    -3.0020 hc         1 ITD       0.045200
     44 H12A         5.0220     9.6900    -3.8320 hc         1 ITD       0.045200
     45 H13          2.0880     9.2030    -4.4610 hc         1 ITD       0.041700
     46 H13A         3.1980    10.1970    -5.4210 hc         1 ITD       0.041700
     47 H14          4.6290     8.2200    -5.8090 hc         1 ITD       0.045200
     48 H14A         2.9780     7.9290    -6.3830 hc         1 ITD       0.045200
     49 H15          2.4570     6.7430    -4.2790 hc         1 ITD       0.045950
     50 H15A         3.8290     5.9890    -5.1090 hc         1 ITD       0.045950
     51 H16          6.4900     2.8690    -3.1930 h1         1 ITD       0.037700
     52 H17          6.5020     3.8360    -6.0740 hc         1 ITD       0.048950
     53 H17A         5.2390     2.8450    -5.3230 hc         1 ITD       0.048950
     54 H18          6.8240     1.4440    -6.6030 hc         1 ITD       0.041200
     55 H18A         6.9010     1.0730    -4.8720 hc         1 ITD       0.041200
     56 H19          8.7980     2.9110    -6.3730 hc         1 ITD       0.041200
     57 H19A         9.1670     1.2640    -5.8350 hc         1 ITD       0.041200
     58 H20          8.7860     1.9470    -3.4900 hc         1 ITD       0.041200
     59 H20A        10.0480     2.9380    -4.2420 hc         1 ITD       0.041200
     60 H21          8.4630     4.3380    -2.9620 hc         1 ITD       0.048950
     61 H21A         8.3870     4.7090    -4.6940 hc         1 ITD       0.048950
@<TRIPOS>BOND
     1     1     4 1
     2     2     4 1
     3     2     9 2
     4     3    11 1
     5     4    12 1
     6     5    13 1
     7     6    15 1
     8     7     4 1
     9     8    16 1
    10     9     3 1
    11     9     5 1
    12    10    15 2
    13    12     5 1
    14    13    11 2
    15    13    14 1
    16    14     6 1
    17    15     8 1
    18    16    17 1
    19    17    18 1
    20    19    18 1
    21    20    19 1
    22    21    16 1
    23    21    20 1
    24    22    10 1
    25    23    22 1
    26    24    23 1
    27    25    24 1
    28    25    26 1
    29    26    27 1
    30    27    22 1
    31     1    28 1
    32     1    29 1
    33     1    30 1
    34     7    31 1
    35     7    32 1
    36     7    33 1
    37     8    34 1
    38    11    35 1
    39    12    36 1
    40    12    37 1
    41    14    38 1
    42    14    39 1
    43    16    40 1
    44    17    41 1
    45    17    42 1
    46    18    43 1
    47    18    44 1
    48    19    45 1
    49    19    46 1
    50    20    47 1
    51    20    48 1
    52    21    49 1
    53    21    50 1
    54    22    51 1
    55    23    52 1
    56    23    53 1
    57    24    54 1
    58    24    55 1
    59    25    56 1
    60    25    57 1
    61    26    58 1
    62    26    59 1
    63    27    60 1
    64    27    61 1
@<TRIPOS>SUBSTRUCTURE
     1 ITD         1 TEMP              0 ****  ****    0 ROOT
