@<TRIPOS>MOLECULE
molecule
   25    27     1     0     0
SMALL
bcc


@<TRIPOS>ATOM
      1 N1           0.0000     0.0000     0.0000 nc         1 ITE      -0.635100
      2 N3          -5.4890    -0.0110     4.6150 nu         1 ITE      -0.875200
      3 C4          -2.0930    -0.0070     3.5820 ca         1 ITE      -0.121200
      4 C5          -4.2760    -0.0090     3.9650 cc         1 ITE       0.691700
      5 C6          -5.5360    -0.0140     6.0780 c3         1 ITE       0.222100
      6 C7          -2.7960    -0.0050     2.3600 ca         1 ITE       0.167400
      7 C8          -2.1000    -0.0030     1.1510 ca         1 ITE      -0.086000
      8 C10          1.2970     0.0000     0.0000 cd         1 ITE       0.491800
      9 C1          -0.7120    -0.0020     1.1580 ca         1 ITE       0.175400
     10 C2          -0.0140    -0.0030     2.3910 ca         1 ITE      -0.207600
     11 C3          -0.7130    -0.0050     3.5960 ca         1 ITE      -0.043000
     12 N2          -3.0580    -0.0090     4.5800 na         1 ITE      -0.297300
     13 N4          -4.1200    -0.0070     2.6630 nd         1 ITE      -0.679100
     14 C9           1.4540    -0.0020     2.3530 c          1 ITE       0.713100
     15 O1           2.1130    -0.0030     3.3750 o          1 ITE      -0.631500
     16 N5           2.0460     0.0000     1.1360 ns         1 ITE      -0.484400
     17 H6          -6.5680     0.0130     6.4070 h1         1 ITE       0.040033
     18 H6A         -5.0610    -0.9130     6.4530 h1         1 ITE       0.040033
     19 H8          -2.6370    -0.1140     0.2170 ha         1 ITE       0.162000
     20 H10          1.8110     0.0020    -0.9540 h5         1 ITE       0.052800
     21 H3          -0.1810     0.1200     4.5310 ha         1 ITE       0.150000
     22 HN5          3.0450     0.0000     1.0710 hn         1 ITE       0.335500
     23 HN2         -2.8920    -0.1450     5.5580 hn         1 ITE       0.302700
     24 H81         -6.3390    -0.0090     4.0870 hn         1 ITE       0.474800
     25 H9          -5.0130     0.8560     6.4580 h1         1 ITE       0.040033
@<TRIPOS>BOND
     1     1     8 2
     2     2     4 1
     3     3    11 ar
     4     4    13 2
     5     4    12 1
     6     5     2 1
     7     5    17 1
     8     5    18 1
     9     6     3 ar
    10     6     7 ar
    11     7     9 ar
    12     7    19 1
    13     8    16 1
    14     8    20 1
    15     9     1 1
    16     9    10 ar
    17    10    14 1
    18    11    10 ar
    19    11    21 1
    20    12     3 1
    21    12    23 1
    22    13     6 1
    23    14    15 2
    24    14    16 1
    25    16    22 1
    26     2    24 1
    27     5    25 1
@<TRIPOS>SUBSTRUCTURE
     1 ITE         1 TEMP              0 ****  ****    0 ROOT
