@<TRIPOS>MOLECULE
molecule
   72    78     1     0     0
SMALL
bcc


@<TRIPOS>ATOM
      1 C4           0.0000     0.0000     0.0000 ca         1 ITI      -0.132000
      2 C5           1.3810     0.0000     0.0000 ca         1 ITI      -0.091000
      3 C6           0.5650    -0.9120     7.8410 ca         1 ITI      -0.109000
      4 C7          -0.4780    -2.9130     7.0410 ca         1 ITI      -0.109000
      5 C8          -0.9710    -5.1630    -4.3050 ca         1 ITI      -0.154000
      6 C10         -0.6960     0.0050     1.1940 ca         1 ITI      -0.154000
      7 C13          4.7790    -1.5920    -1.9770 ca         1 ITI      -0.446600
      8 C15          4.3310    -2.3600    -3.0320 ca         1 ITI       0.499200
      9 C17         -0.3020    -1.5440     6.9700 ca         1 ITI      -0.069300
     10 C20         -0.0100     0.0110     2.4030 ca         1 ITI       0.040600
     11 C21          3.9440    -1.4390    -0.8590 ca         1 ITI       0.599800
     12 C22          3.5590    -0.0000     1.2110 cc         1 ITI       0.481800
     13 C24          2.3640    -2.7680    -1.8930 ca         1 ITI       0.942900
     14 C26          6.9710    -0.6550     0.2520 cc         1 ITI      -0.101300
     15 C28         -0.2410    -0.6590     4.6740 c          1 ITI       0.654100
     16 C1           1.0870    -3.0190     8.8500 ca         1 ITI      -0.124000
     17 C2           1.2590    -1.6500     8.7820 ca         1 ITI      -0.125500
     18 C3           0.2120    -3.6510     7.9860 ca         1 ITI      -0.125500
     19 C9           1.3140    -5.8740    -4.5550 ca         1 ITI      -0.154000
     20 C11         -0.5940    -4.3110    -3.2860 ca         1 ITI      -0.125500
     21 C12          1.6890    -5.0250    -3.5330 ca         1 ITI      -0.125500
     22 C14          1.3760     0.0110     2.4120 ca         1 ITI      -0.088000
     23 C16          2.0780     0.0000     1.2080 ca         1 ITI      -0.097500
     24 C18         -0.0180    -5.9490    -4.9410 ca         1 ITI       0.157600
     25 C19          0.7370    -4.2390    -2.8970 ca         1 ITI       0.132600
     26 C23          4.3770    -0.6350     0.2930 cd         1 ITI      -0.303100
     27 C25          5.6070     0.4100     1.7890 cd         1 ITI       0.496900
     28 C27          7.9930    -0.1730     0.9380 cd         1 ITI      -0.080100
     29 C29          1.6690    -7.3270    -6.5830 c3         1 ITI       0.187300
     30 C30         -0.2460    -5.9890    -7.2080 c3         1 ITI       0.187300
     31 C31          1.3320    -8.3120    -7.7060 c3         1 ITI       0.128900
     32 C32         -0.5650    -6.9870    -8.3240 c3         1 ITI       0.128900
     33 C33         -1.0540    -0.7410     5.9400 c3         1 ITI      -0.109100
     34 N34          3.1350    -2.9270    -2.9610 nb         1 ITI      -0.793000
     35 N35          2.7490    -2.0360    -0.8600 nb         1 ITI      -0.778000
     36 N36          4.3480     0.6210     2.1000 nc         1 ITI      -0.655000
     37 N37          5.6960    -0.3650     0.6750 na         1 ITI      -0.120900
     38 N38          0.4320    -6.6910    -6.1090 nh         1 ITI      -0.741000
     39 N39          1.1190    -3.3750    -1.8640 nu         1 ITI      -0.750300
     40 N40         -0.7180     0.0160     3.6100 ns         1 ITI      -0.482100
     41 O41          0.8430    -1.1990     4.6130 o          1 ITI      -0.573100
     42 O42          0.6460    -7.6180    -8.7510 os         1 ITI      -0.423600
     43 S43          7.2780     0.7510     2.2710 ss         1 ITI      -0.161300
     44 H4          -0.5400    -0.0020    -0.9390 ha         1 ITI       0.130000
     45 H5           1.9230    -0.0040    -0.9380 ha         1 ITI       0.136000
     46 H7          -1.1600    -3.4080     6.3610 ha         1 ITI       0.128500
     47 H8          -2.0100    -5.2210    -4.6070 ha         1 ITI       0.143000
     48 H10         -1.7790     0.0050     1.1880 ha         1 ITI       0.125000
     49 H13          5.7530    -1.1180    -2.0110 ha         1 ITI       0.141000
     50 H15          4.9500    -2.4980    -3.9100 h4         1 ITI       0.029100
     51 H26          7.1360    -1.2660    -0.6270 h4         1 ITI       0.178000
     52 H1           1.6290    -3.5970     9.5880 ha         1 ITI       0.128000
     53 H2           1.9420    -1.1550     9.4630 ha         1 ITI       0.129000
     54 H3           0.0760    -4.7240     8.0410 ha         1 ITI       0.129000
     55 H9           2.0570    -6.4870    -5.0500 ha         1 ITI       0.143000
     56 H11         -1.3360    -3.6980    -2.7900 ha         1 ITI       0.145000
     57 H12          2.7280    -4.9670    -3.2310 ha         1 ITI       0.145000
     58 H14          1.9130     0.0130     3.3530 ha         1 ITI       0.181000
     59 H27          9.0180    -0.5190     0.8820 h4         1 ITI       0.202000
     60 H29          2.1360    -7.8610    -5.7640 h1         1 ITI       0.046700
     61 H29A         2.3430    -6.5680    -6.9590 h1         1 ITI       0.046700
     62 H30         -1.1670    -5.5510    -6.8420 h1         1 ITI       0.046700
     63 H30A         0.4020    -5.2110    -7.5930 h1         1 ITI       0.046700
     64 H31          0.6970    -9.0980    -7.3170 h1         1 ITI       0.053200
     65 H31A         2.2470    -8.7390    -8.0970 h1         1 ITI       0.053200
     66 H32         -1.2510    -7.7370    -7.9520 h1         1 ITI       0.053200
     67 H32A        -1.0120    -6.4620    -9.1600 h1         1 ITI       0.053200
     68 H33         -1.2320     0.2570     6.3210 hc         1 ITI       0.066200
     69 H33A        -2.0020    -1.2210     5.7300 hc         1 ITI       0.066200
     70 HN39         0.5100    -3.2280    -1.0840 hn         1 ITI       0.470800
     71 HN40        -1.5690     0.5370     3.6880 hn         1 ITI       0.321500
     72 H6           0.7010     0.1620     7.7860 ha         1 ITI       0.128500
@<TRIPOS>BOND
     1     6     1 ar
     2     1     2 ar
     3     1    44 1
     4     2    23 ar
     5     2    45 1
     6    17     3 ar
     7     3     9 ar
     8     3    72 1
     9     9     4 ar
    10    18     4 ar
    11     4    46 1
    12    20     5 ar
    13     5    24 ar
    14     5    47 1
    15     6    10 ar
    16     6    48 1
    17     8     7 ar
    18     7    11 ar
    19     7    49 1
    20     8    34 ar
    21     8    50 1
    22     9    33 1
    23    40    10 1
    24    10    22 ar
    25    11    26 1
    26    11    35 ar
    27    23    12 1
    28    12    36 1
    29    12    26 2
    30    34    13 ar
    31    13    35 ar
    32    13    39 1
    33    37    14 1
    34    14    28 2
    35    14    51 1
    36    41    15 2
    37    15    33 1
    38    15    40 1
    39    17    16 ar
    40    16    18 ar
    41    16    52 1
    42    17    53 1
    43    18    54 1
    44    21    19 ar
    45    24    19 ar
    46    19    55 1
    47    20    25 ar
    48    20    56 1
    49    25    21 ar
    50    21    57 1
    51    22    23 ar
    52    22    58 1
    53    24    38 1
    54    39    25 1
    55    26    37 1
    56    36    27 2
    57    27    37 1
    58    27    43 1
    59    43    28 1
    60    28    59 1
    61    38    29 1
    62    29    31 1
    63    29    60 1
    64    29    61 1
    65    38    30 1
    66    30    32 1
    67    30    62 1
    68    30    63 1
    69    31    42 1
    70    31    64 1
    71    31    65 1
    72    32    42 1
    73    32    66 1
    74    32    67 1
    75    33    68 1
    76    33    69 1
    77    39    70 1
    78    40    71 1
@<TRIPOS>SUBSTRUCTURE
     1 ITI         1 TEMP              0 ****  ****    0 ROOT
