@<TRIPOS>MOLECULE
molecule
   13    12     1     0     0
SMALL
bcc


@<TRIPOS>ATOM
      1 C1           0.0000     0.0000     0.0000 c          1 ITN       0.913600
      2 C2           1.5070     0.0000     0.0000 c3         1 ITN      -0.140200
      3 C3           2.0100     0.0000     1.4210 ce         1 ITN      -0.071400
      4 C5           2.1500     1.2670     2.1510 c          1 ITN       0.895800
      5 O3           1.8300     2.4300     1.5490 o          1 ITN      -0.871800
      6 O4           2.5550     1.2670     3.2970 o          1 ITN      -0.871800
      7 C4           2.3260    -1.1480     2.0150 c2         1 ITN      -0.306000
      8 O1          -0.6040     0.0060     1.0460 o          1 ITN      -0.876300
      9 O2          -0.6710     0.0010    -1.1620 o          1 ITN      -0.876300
     10 H1           1.8680     0.8840    -0.5110 hc         1 ITN       0.024700
     11 H2           1.8680    -0.8850    -0.5110 hc         1 ITN       0.024700
     12 H4           2.6870    -1.1490     3.0360 ha         1 ITN       0.078000
     13 H5           2.2230    -2.0830     1.4770 ha         1 ITN       0.078000
@<TRIPOS>BOND
     1     6     4 1
     2     8     1 1
     3     2     3 1
     4     2     1 1
     5     4     3 1
     6     4     5 1
     7     3     7 2
     8     1     9 1
     9     2    10 1
    10     2    11 1
    11     7    12 1
    12     7    13 1
@<TRIPOS>SUBSTRUCTURE
     1 ITN         1 TEMP              0 ****  ****    0 ROOT
