@<TRIPOS>MOLECULE
ITP
   30    30     1     0     0
SMALL
bcc


@<TRIPOS>ATOM
      1 C1         -0.0350    0.1320    0.0420 c3        1 ITP      0.189600
      2 O1         -0.4200   -0.0090   -1.2820 os        1 ITP     -0.584700
      3 C2          1.5250    0.1540    0.1000 c3        1 ITP      0.114100
      4 O2          2.0340   -0.9210   -0.6860 oh        1 ITP     -0.626800
      5 C3          2.1350    0.0700    1.5270 c3        1 ITP      0.189600
      6 O3          3.5110    0.0190    1.4840 os        1 ITP     -0.584700
      7 C4          1.5740   -1.1980    2.2350 c3        1 ITP      0.114100
      8 O4          2.0460   -1.3580    3.5580 oh        1 ITP     -0.704800
      9 C5          0.0420   -1.1080    2.2780 c3        1 ITP      0.131100
     10 O5         -0.4690   -2.2390    2.9940 oh        1 ITP     -0.636800
     11 C6         -0.5300   -1.0920    0.8530 c3        1 ITP      0.114100
     12 O6         -1.9410   -1.1540    0.9840 oh        1 ITP     -0.704800
     13 P1         -1.7390    0.8910   -1.9130 p5        1 ITP      1.330900
     14 OP1        -1.5770    0.7180   -3.4010 o         1 ITP     -0.937667
     15 OP2        -2.9170    0.1360   -1.3250 o         1 ITP     -0.937667
     16 OP3        -1.5870    2.2890   -1.3870 o         1 ITP     -0.937667
     17 P3          4.4390    1.0500    2.5010 p5        1 ITP      1.330900
     18 O10         5.8050    1.0640    1.8610 o         1 ITP     -0.937667
     19 O11         4.3780    0.2860    3.8110 o         1 ITP     -0.937667
     20 O12         3.7150    2.3670    2.5280 o         1 ITP     -0.937667
     21 H1         -0.4590    1.0820    0.4690 h1        1 ITP      0.046700
     22 H2          1.8740    1.1190   -0.3650 h1        1 ITP      0.036700
     23 HO2         1.4650   -0.9590   -1.4680 ho        1 ITP      0.398000
     24 H3          1.8050    0.9900    2.0970 h1        1 ITP      0.046700
     25 H4          1.8790   -2.1070    1.6470 h1        1 ITP      0.022700
     26 HO4         2.8700   -0.8180    3.6390 ho        1 ITP      0.484500
     27 H5         -0.2750   -0.1830    2.8340 h1        1 ITP      0.027700
     28 HO5        -1.3980   -2.3050    2.7440 ho        1 ITP      0.380000
     29 H6         -0.1930   -2.0230    0.3120 h1        1 ITP      0.022700
     30 HO6        -2.3250   -0.7080    0.1870 ho        1 ITP      0.484500
@<TRIPOS>BOND
     1    1    2 1   
     2    1    3 1   
     3    1   11 1   
     4    1   21 1   
     5    2   13 1   
     6    3    4 1   
     7    3    5 1   
     8    3   22 1   
     9    4   23 1   
    10    5    6 1   
    11    5    7 1   
    12    5   24 1   
    13    6   17 1   
    14    7    8 1   
    15    7    9 1   
    16    7   25 1   
    17    8   26 1   
    18    9   10 1   
    19    9   11 1   
    20    9   27 1   
    21   10   28 1   
    22   11   12 1   
    23   11   29 1   
    24   12   30 1   
    25   13   14 1   
    26   13   15 1   
    27   13   16 1   
    28   17   18 1   
    29   17   19 1   
    30   17   20 1   
@<TRIPOS>SUBSTRUCTURE
     1 ITP         1 TEMP              0 ****  ****    0 ROOT
