@<TRIPOS>MOLECULE
molecule
   30    30     1     0     0
SMALL
bcc


@<TRIPOS>ATOM
      1 C1           0.0000     0.0000     0.0000 c3         1 ITP       0.170100
      2 O1          -0.4780    -0.0010    -1.3470 os         1 ITP      -0.545200
      3 C2           1.5290     0.0000     0.0000 c3         1 ITP       0.121100
      4 O2           2.0050    -1.1660    -0.6760 oh         1 ITP      -0.636800
      5 C3           2.0390     0.0000     1.4410 c3         1 ITP       0.170100
      6 O3           3.4680     0.0000     1.4410 os         1 ITP      -0.545200
      7 C4           1.5300    -1.2490     2.1620 c3         1 ITP       0.128100
      8 O4           2.0080    -1.2510     3.5080 oh         1 ITP      -0.555300
      9 C5           0.0020    -1.2520     2.1630 c3         1 ITP       0.095100
     10 O5          -0.4750    -2.4180     2.8360 oh         1 ITP      -0.654800
     11 C6          -0.5100    -1.2500     0.7210 c3         1 ITP       0.128100
     12 O6          -1.9390    -1.2510     0.7210 oh         1 ITP      -0.555300
     13 P1          -1.3600     1.3330    -1.5280 p5         1 ITP       1.166400
     14 OP1         -1.9320     1.3990    -3.0300 o          1 ITP      -0.921167
     15 OP2         -2.5880     1.3110    -0.4870 o          1 ITP      -0.921167
     16 OP3         -0.5160     2.5210    -1.2690 o          1 ITP      -0.921167
     17 P3           3.9340     1.3340     2.2120 p5         1 ITP       1.166400
     18 O10          5.5410     1.4000     2.2490 o          1 ITP      -0.921167
     19 O11          3.4080     1.3120     3.5950 o          1 ITP      -0.921167
     20 O12          3.3620     2.6260     1.4410 o          1 ITP      -0.921167
     21 H1          -0.3590     0.8830     0.5150 h1         1 ITP       0.107200
     22 H2           1.8870     0.8880    -0.5070 h1         1 ITP       0.108700
     23 HO2          2.5310    -0.9080    -1.4150 ho         1 ITP       0.375000
     24 H3           1.6740     0.8830     1.9520 h1         1 ITP       0.107200
     25 H4           1.8890    -2.1320     1.6460 h1         1 ITP       0.022200
     26 HO4          2.3580    -2.1010     3.7160 ho         1 ITP       0.345000
     27 H5          -0.3580    -0.3650     2.6710 h1         1 ITP       0.067700
     28 HO5         -0.9980    -2.1620     3.5770 ho         1 ITP       0.372000
     29 H6          -0.1440    -2.1330     0.2100 h1         1 ITP       0.022200
     30 HO6         -2.2520    -2.1010     0.4590 ho         1 ITP       0.345000
@<TRIPOS>BOND
     1     1     2 1
     2     1     3 1
     3     1    11 1
     4     1    21 1
     5     2    13 1
     6     3     4 1
     7     3     5 1
     8     3    22 1
     9     4    23 1
    10     5     6 1
    11     5     7 1
    12     5    24 1
    13     6    17 1
    14     7     8 1
    15     7     9 1
    16     7    25 1
    17     8    26 1
    18     9    10 1
    19     9    11 1
    20     9    27 1
    21    10    28 1
    22    11    12 1
    23    11    29 1
    24    12    30 1
    25    13    14 1
    26    13    15 1
    27    13    16 1
    28    17    18 1
    29    17    19 1
    30    17    20 1
@<TRIPOS>SUBSTRUCTURE
     1 ITP         1 TEMP              0 ****  ****    0 ROOT
