@<TRIPOS>MOLECULE
molecule
   63    70     1     0     0
SMALL
bcc


@<TRIPOS>ATOM
      1 C1           0.0000     0.0000     0.0000 c3         1 ITQ      -0.014200
      2 N1           0.5720     4.9070     5.2300 nc         1 ITQ      -0.665100
      3 C2           1.5330     0.0000     0.0000 c3         1 ITQ      -0.075400
      4 N2          -4.0800     3.6030     1.9010 na         1 ITQ      -0.065300
      5 C3           2.0420     0.0000     1.4440 c3         1 ITQ      -0.083400
      6 N3          -1.7340     1.6450     0.9450 na         1 ITQ      -0.085400
      7 C4           1.7480     1.3600     2.0860 c3         1 ITQ      -0.004200
      8 N4          -3.5430     1.1180     2.9290 n7         1 ITQ      -0.808200
      9 O4          -3.7330     2.3800    -0.1240 os         1 ITQ      -0.386600
     10 C5           0.3010     1.7040     1.8410 cc         1 ITQ      -0.127400
     11 C6          -0.4730     2.6800     2.5070 ca         1 ITQ      -0.013800
     12 O6          -6.2120     2.0580     2.5540 os         1 ITQ      -0.398600
     13 C7          -0.2350     3.5940     3.5400 ca         1 ITQ      -0.188600
     14 C8           0.9330     3.9220     4.3880 c          1 ITQ       0.716100
     15 C9          -0.6700     5.2680     5.0490 cd         1 ITQ       0.570800
     16 C10         -1.2590     4.4600     3.9710 ca         1 ITQ      -0.197900
     17 C11         -2.5250     4.4130     3.3680 cp         1 ITQ      -0.047000
     18 C12         -3.7760     5.1420     3.5420 cp         1 ITQ      -0.089000
     19 C13         -4.1330     6.1830     4.4040 ca         1 ITQ      -0.072000
     20 C14         -5.4320     6.6550     4.3080 ca         1 ITQ      -0.166000
     21 C15         -6.3370     6.1240     3.4060 ca         1 ITQ      -0.104000
     22 C16         -6.0010     5.0920     2.5440 ca         1 ITQ      -0.156000
     23 C17         -4.6990     4.6000     2.6160 ca         1 ITQ       0.030800
     24 C18         -2.7670     3.4820     2.3360 ca         1 ITQ       0.065800
     25 C19         -1.7550     2.6280     1.9160 ca         1 ITQ      -0.029200
     26 C20         -0.4810     1.1030     0.9160 cd         1 ITQ      -0.066300
     27 C21         -4.6740     2.7850     0.8430 c3         1 ITQ       0.300500
     28 C22         -5.4350     1.6070     1.4420 c3         1 ITQ       0.115100
     29 C23         -4.4360     0.5440     1.9150 c3         1 ITQ       0.133500
     30 C24         -3.6170     0.0870     0.7020 c3         1 ITQ      -0.136400
     31 C25         -2.8780     1.2810     0.1110 c3         1 ITQ       0.281800
     32 C26         -5.7090     3.6560     0.1290 c3         1 ITQ      -0.109100
     33 C27         -7.4110     1.3090     2.7670 c3         1 ITQ       0.121700
     34 H1          -0.3630     0.1780    -1.0050 hc         1 ITQ       0.046200
     35 H1A         -0.3630    -0.9550     0.3600 hc         1 ITQ       0.046200
     36 H2           1.8930     0.8860    -0.5090 hc         1 ITQ       0.047700
     37 H2A          1.8930    -0.8860    -0.5090 hc         1 ITQ       0.047700
     38 H3           3.1110    -0.1770     1.4480 hc         1 ITQ       0.043700
     39 H3A          1.5390    -0.7790     2.0030 hc         1 ITQ       0.043700
     40 H4           1.9330     1.3050     3.1520 hc         1 ITQ       0.065700
     41 H4A          2.3820     2.1170     1.6400 hc         1 ITQ       0.065700
     42 HN4         -2.6560     0.6550     2.8930 hn         1 ITQ       0.365800
     43 H9          -0.9550     6.3060     5.1650 h4         1 ITQ       0.053800
     44 H13         -3.4280     6.6020     5.1110 ha         1 ITQ       0.135000
     45 H14         -5.7480     7.4610     4.9590 ha         1 ITQ       0.126000
     46 H15         -7.3410     6.5290     3.3720 ha         1 ITQ       0.125000
     47 H16         -6.7200     4.6860     1.8430 ha         1 ITQ       0.141000
     48 H22         -6.0860     1.1790     0.6900 h1         1 ITQ       0.052700
     49 H23         -4.9730    -0.3000     2.3300 h1         1 ITQ       0.042700
     50 H24         -4.2820    -0.3300    -0.0440 hc         1 ITQ       0.068200
     51 H24A        -2.9000    -0.6620     1.0140 hc         1 ITQ       0.068200
     52 H25         -2.4870     0.9700    -0.8500 h2         1 ITQ       0.092700
     53 H26         -5.4820     4.7010     0.3000 hc         1 ITQ       0.063700
     54 H26A        -6.6970     3.4330     0.5150 hc         1 ITQ       0.063700
     55 H26B        -5.6820     3.4500    -0.9340 hc         1 ITQ       0.063700
     56 H27         -8.1140     1.5200     1.9700 h1         1 ITQ       0.034033
     57 H27A        -7.8480     1.5900     3.7180 h1         1 ITQ       0.034033
     58 H27B        -7.1800     0.2510     2.7750 h1         1 ITQ       0.034033
     59 H28         -4.6970     0.0650     4.3260 h1         1 ITQ       0.037700
     60 H28A        -4.7560     1.8250     4.4850 h1         1 ITQ       0.037700
     61 H28B        -3.3160     0.9380     5.0050 h1         1 ITQ       0.037700
     62 O5           2.0260     3.3940     4.3330 o          1 ITQ      -0.479100
     63 C28         -4.1160     0.9770     4.2750 c3         1 ITQ       0.149100
@<TRIPOS>BOND
     1     1     3 1
     2     1    26 1
     3     2    14 1
     4     2    15 2
     5     3     5 1
     6     4    23 1
     7     4    24 1
     8     4    27 1
     9     5     7 1
    10     6    25 1
    11     6    26 1
    12     6    31 1
    13     7    10 1
    14     8    29 1
    15     8    63 1
    16     9    27 1
    17     9    31 1
    18    10    11 1
    19    10    26 2
    20    62    14 2
    21    11    13 ar
    22    11    25 ar
    23    12    28 1
    24    12    33 1
    25    13    14 1
    26    13    16 ar
    27    15    16 1
    28    16    17 ar
    29    17    18 1
    30    17    24 ar
    31    18    19 ar
    32    18    23 ar
    33    19    20 ar
    34    20    21 ar
    35    21    22 ar
    36    22    23 ar
    37    24    25 ar
    38    27    28 1
    39    27    32 1
    40    28    29 1
    41    29    30 1
    42    30    31 1
    43     1    34 1
    44     1    35 1
    45     3    36 1
    46     3    37 1
    47     5    38 1
    48     5    39 1
    49     7    40 1
    50     7    41 1
    51     8    42 1
    52    15    43 1
    53    19    44 1
    54    20    45 1
    55    21    46 1
    56    22    47 1
    57    28    48 1
    58    29    49 1
    59    30    50 1
    60    30    51 1
    61    31    52 1
    62    32    53 1
    63    32    54 1
    64    32    55 1
    65    33    56 1
    66    33    57 1
    67    33    58 1
    68    63    59 1
    69    63    60 1
    70    63    61 1
@<TRIPOS>SUBSTRUCTURE
     1 ITQ         1 TEMP              0 ****  ****    0 ROOT
