@<TRIPOS>MOLECULE
molecule
   24    25     1     0     0
SMALL
bcc


@<TRIPOS>ATOM
      1 N            0.0000     0.0000     0.0000 n2         1 ITR      -0.821100
      2 CA           1.2800     0.0000     0.0000 ce         1 ITR       0.379300
      3 CB           2.0340     0.0000     1.3050 c3         1 ITR      -0.038500
      4 CG           1.0550     0.0000     2.4500 cc         1 ITR      -0.089400
      5 CD1          0.5360    -1.0790     3.0570 cd         1 ITR      -0.118100
      6 NE1         -0.3150    -0.6870     4.0550 na         1 ITR      -0.193400
      7 CE2         -0.3660     0.6870     4.1140 ca         1 ITR      -0.040200
      8 CZ2         -1.0550     1.5850     4.9230 ca         1 ITR      -0.159000
      9 CH2         -0.8930     2.9390     4.7330 ca         1 ITR      -0.121000
     10 CZ3         -0.0480     3.4190     3.7420 ca         1 ITR      -0.178000
     11 CE3          0.6390     2.5540     2.9370 ca         1 ITR      -0.059000
     12 CD2          0.4940     1.1780     3.1160 ca         1 ITR      -0.082800
     13 C            2.0210    -0.0020    -1.2840 c          1 ITR       0.753300
     14 O            3.2340    -0.0030    -1.2840 o          1 ITR      -0.835800
     15 OXT          1.3480    -0.0020    -2.4500 o          1 ITR      -0.835800
     16 HN          -0.5000    -0.0010    -0.8670 hn         1 ITR       0.406400
     17 HB1          2.6570     0.8840     1.3620 hc         1 ITR       0.058700
     18 HB2          2.6560    -0.8850     1.3620 hc         1 ITR       0.058700
     19 HD1          0.7590    -2.1060     2.7960 h4         1 ITR       0.162000
     20 HE1         -0.8250    -1.3080     4.6520 hn         1 ITR       0.279700
     21 HZ2         -1.7170     1.2200     5.6990 ha         1 ITR       0.109000
     22 HH2         -1.4310     3.6370     5.3640 ha         1 ITR       0.112000
     23 HZ3          0.0690     4.4870     3.6060 ha         1 ITR       0.116000
     24 HE3          1.2970     2.9350     2.1650 ha         1 ITR       0.138000
@<TRIPOS>BOND
     1     1     2 2
     2     1    16 1
     3     2     3 1
     4     2    13 1
     5     3     4 1
     6     3    17 1
     7     3    18 1
     8     4     5 2
     9     4    12 1
    10     5     6 1
    11     5    19 1
    12     6     7 1
    13     6    20 1
    14     7     8 ar
    15     7    12 ar
    16     8     9 ar
    17     8    21 1
    18     9    10 ar
    19     9    22 1
    20    10    11 ar
    21    10    23 1
    22    11    12 ar
    23    11    24 1
    24    13    14 1
    25    13    15 1
@<TRIPOS>SUBSTRUCTURE
     1 ITR         1 TEMP              0 ****  ****    0 ROOT
