@<TRIPOS>MOLECULE
molecule
   36    36     1     0     0
SMALL
bcc


@<TRIPOS>ATOM
      1 C1           0.0000     0.0000     0.0000 c3         1 ITS       0.146100
      2 O1          -0.4770    -0.0010    -1.3470 os         1 ITS      -0.595200
      3 C2           1.5300     0.0000     0.0000 c3         1 ITS       0.127600
      4 O2           2.0060    -1.1670    -0.6730 oh         1 ITS      -0.544300
      5 C3           2.0390     0.0000     1.4410 c3         1 ITS       0.161600
      6 O3           3.4690     0.0010     1.4420 os         1 ITS      -0.518700
      7 C4           1.5300    -1.2470     2.1630 c3         1 ITS       0.165100
      8 O4           2.0060    -2.4140     1.4910 os         1 ITS      -0.544200
      9 C5           0.0000    -1.2480     2.1630 c3         1 ITS       0.161600
     10 O5          -0.4770    -2.4130     2.8370 os         1 ITS      -0.518700
     11 C6          -0.5100    -1.2490     0.7210 c3         1 ITS       0.127600
     12 O6          -1.9390    -1.2470     0.7210 oh         1 ITS      -0.544300
     13 P1          -1.3570     1.3340    -1.5300 p5         1 ITS       1.218900
     14 OP1         -0.5130     2.5220    -1.2720 o          1 ITS      -0.958500
     15 OP2         -1.9290     1.3980    -3.0340 o          1 ITS      -0.958500
     16 OP3         -2.5850     1.3120    -0.4900 o          1 ITS      -0.958500
     17 P3           3.9340     1.3350     2.2110 p5         1 ITS       1.247900
     18 O10          3.4090     1.3160     3.5950 o          1 ITS      -0.969667
     19 O11          5.5420     1.4000     2.2490 o          1 ITS      -0.969667
     20 O12          3.3640     2.6270     1.4390 o          1 ITS      -0.969667
     21 P4           2.8870    -3.2390     2.5560 p5         1 ITS       1.225900
     22 OP4          3.4580    -4.5750     1.8610 o          1 ITS      -0.960500
     23 OP5          4.1160    -2.3270     3.0560 o          1 ITS      -0.960500
     24 OP6          2.0430    -3.6080     3.7140 o          1 ITS      -0.960500
     25 P5          -1.3580    -1.9030     4.0830 p5         1 ITS       1.247900
     26 OP7         -1.9300    -3.1730     4.8930 o          1 ITS      -0.969667
     27 OP8         -0.4400    -1.0130     5.0610 o          1 ITS      -0.969667
     28 OP9         -2.4860    -1.0860     3.5880 o          1 ITS      -0.969667
     29 H1          -0.3590     0.8830     0.5140 h1         1 ITS       0.091700
     30 H2           1.8890     0.8870    -0.5080 h1         1 ITS       0.026700
     31 HO           2.4310    -0.9160    -1.4760 ho         1 ITS       0.301500
     32 H3           1.6740     0.8830     1.9500 h1         1 ITS       0.069200
     33 H4           1.8880    -1.2420     3.1860 h1         1 ITS       0.122700
     34 H5          -0.3590    -0.3600     2.6700 h1         1 ITS       0.069200
     35 H6          -0.1440    -2.1320     0.2110 h1         1 ITS       0.026700
     36 HO6         -2.2540    -2.0150     0.2740 ho         1 ITS       0.301500
@<TRIPOS>BOND
     1     1     2 1
     2     1     3 1
     3     1    11 1
     4     1    29 1
     5     2    13 1
     6     3     4 1
     7     3     5 1
     8     3    30 1
     9     4    31 1
    10     5     6 1
    11     5     7 1
    12     5    32 1
    13     6    17 1
    14     7     8 1
    15     7     9 1
    16     7    33 1
    17     8    21 1
    18     9    10 1
    19     9    11 1
    20     9    34 1
    21    10    25 1
    22    11    12 1
    23    11    35 1
    24    12    36 1
    25    13    14 1
    26    13    15 1
    27    13    16 1
    28    17    18 1
    29    17    19 1
    30    17    20 1
    31    21    22 1
    32    21    23 1
    33    21    24 1
    34    25    26 1
    35    25    27 1
    36    25    28 1
@<TRIPOS>SUBSTRUCTURE
     1 ITS         1 TEMP              0 ****  ****    0 ROOT
