@<TRIPOS>MOLECULE
ITS
   36    36     1     0     0
SMALL
bcc


@<TRIPOS>ATOM
      1 C1         -0.0090    0.1210    0.0670 c3        1 ITS      0.215100
      2 O1         -0.3440    0.0600   -1.2930 os        1 ITS     -0.615200
      3 C2          1.5420    0.2900    0.2510 c3        1 ITS      0.111100
      4 O2          2.2510   -0.5380   -0.6550 oh        1 ITS     -0.654800
      5 C3          2.0400    0.1100    1.7260 c3        1 ITS      0.188600
      6 O3          3.3930    0.4220    1.8630 os        1 ITS     -0.598700
      7 C4          1.6350   -1.3380    2.2820 c3        1 ITS      0.237100
      8 O4          2.1290   -2.4080    1.5450 os        1 ITS     -0.609200
      9 C5          0.0430   -1.2400    2.3030 c3        1 ITS      0.188600
     10 O5         -0.6050   -2.2480    3.0220 os        1 ITS     -0.598700
     11 C6         -0.4500   -1.1780    0.8190 c3        1 ITS      0.111100
     12 O6         -1.8650   -1.3040    0.7250 oh        1 ITS     -0.654800
     13 P1         -1.2510    1.1310   -2.2440 p5        1 ITS      1.380900
     14 OP1        -0.3100    1.7060   -3.2990 o         1 ITS     -0.986833
     15 OP2        -2.3020    0.2930   -2.9690 o         1 ITS     -0.986833
     16 OP3        -1.8820    2.2390   -1.4230 o         1 ITS     -0.986833
     17 P3          4.0350    1.8830    2.4640 p5        1 ITS      1.362900
     18 O10         4.8890    1.5720    3.6880 o         1 ITS     -0.978667
     19 O11         4.9450    2.4430    1.3740 o         1 ITS     -0.978667
     20 O12         2.9230    2.8500    2.8150 o         1 ITS     -0.978667
     21 P4          3.0740   -3.7640    2.0400 p5        1 ITS      1.387900
     22 OP4         2.2990   -5.0140    1.6450 o         1 ITS     -0.978167
     23 OP5         4.3390   -3.7400    1.1910 o         1 ITS     -0.978167
     24 OP6         3.3970   -3.7440    3.5190 o         1 ITS     -0.978167
     25 P5         -1.8110   -2.0360    4.2020 p5        1 ITS      1.362900
     26 OP7        -2.2810   -3.4380    4.5820 o         1 ITS     -0.978667
     27 OP8        -1.2970   -1.3090    5.4290 o         1 ITS     -0.978667
     28 OP9        -2.9460   -1.2790    3.5320 o         1 ITS     -0.978667
     29 H1         -0.5240    1.0080    0.5310 h1        1 ITS      0.005700
     30 H2          1.7960    1.3340   -0.0900 h1        1 ITS      0.037700
     31 HO          2.2880   -1.4120   -0.2450 ho        1 ITS      0.429500
     32 H3          1.4640    0.8620    2.3480 h1        1 ITS     -0.004300
     33 H4          1.9990   -1.4200    3.3410 h1        1 ITS      0.020700
     34 H5         -0.2260   -0.2590    2.8000 h1        1 ITS     -0.004300
     35 H6         -0.0170   -2.0590    0.2710 h1        1 ITS      0.037700
     36 HO6        -2.2150   -1.2720    1.6350 ho        1 ITS      0.429500
@<TRIPOS>BOND
     1    1    2 1   
     2    1    3 1   
     3    1   11 1   
     4    1   29 1   
     5    2   13 1   
     6    3    4 1   
     7    3    5 1   
     8    3   30 1   
     9    4   31 1   
    10    5    6 1   
    11    5    7 1   
    12    5   32 1   
    13    6   17 1   
    14    7    8 1   
    15    7    9 1   
    16    7   33 1   
    17    8   21 1   
    18    9   10 1   
    19    9   11 1   
    20    9   34 1   
    21   10   25 1   
    22   11   12 1   
    23   11   35 1   
    24   12   36 1   
    25   13   14 1   
    26   13   15 1   
    27   13   16 1   
    28   17   18 1   
    29   17   19 1   
    30   17   20 1   
    31   21   22 1   
    32   21   23 1   
    33   21   24 1   
    34   25   26 1   
    35   25   27 1   
    36   25   28 1   
@<TRIPOS>SUBSTRUCTURE
     1 ITS         1 TEMP              0 ****  ****    0 ROOT
