@<TRIPOS>MOLECULE
molecule
   15    14     1     0     0
SMALL
bcc


@<TRIPOS>ATOM
      1 C1           0.0000     0.0000     0.0000 c3         1 ITU      -0.089100
      2 C2           1.5310     0.0000     0.0000 c3         1 ITU       0.012700
      3 S            2.1340     0.0000     1.7060 ss         1 ITU      -0.115300
      4 C3           3.8710    -0.0000     1.4170 c2         1 ITU       0.465100
      5 N1           4.7450    -0.0000     2.4780 nz         1 ITU      -0.785600
      6 N2           4.3280    -0.0000     0.1950 n2         1 ITU      -0.714100
      7 H11         -0.3610     0.0000    -1.0210 hc         1 ITU       0.066700
      8 H12         -0.3610     0.8850     0.5110 hc         1 ITU       0.066700
      9 H13         -0.3610    -0.8850     0.5110 hc         1 ITU       0.066700
     10 H21          1.8920     0.8840    -0.5110 h1         1 ITU       0.093700
     11 H22          1.8920    -0.8850    -0.5110 h1         1 ITU       0.093700
     12 HN11         5.3210     0.8170     2.4360 hn         1 ITU       0.467133
     13 HN12         5.3210    -0.8170     2.4360 hn         1 ITU       0.467133
     14 HN2          5.3150    -0.0000     0.0290 hn         1 ITU       0.435400
     15 H131         4.2290    -0.0000     3.3360 hn         1 ITU       0.467133
@<TRIPOS>BOND
     1     1     2 1
     2     1     7 1
     3     1     8 1
     4     1     9 1
     5     2     3 1
     6     2    10 1
     7     2    11 1
     8     3     4 1
     9     4     5 1
    10     4     6 2
    11     5    12 1
    12     5    13 1
    13     6    14 1
    14    15     5 1
@<TRIPOS>SUBSTRUCTURE
     1 ITU         1 TEMP              0 ****  ****    0 ROOT
