@<TRIPOS>MOLECULE
molecule
   25    26     1     0     0
SMALL
bcc


@<TRIPOS>ATOM
      1 O01          0.0000     0.0000     0.0000 o          1 ITW      -0.847800
      2 C02          1.3490     0.0000     0.0000 c          1 ITW       0.888800
      3 O03          1.9560     0.0000     1.0530 o          1 ITW      -0.847800
      4 C04          2.0840     0.0000    -1.2730 ce         1 ITW      -0.139400
      5 C05          3.4140     0.0000    -1.2720 c2         1 ITW      -0.249000
      6 C06          1.3300     0.0000    -2.5780 c3         1 ITW       0.036000
      7 C07          0.9730    -1.4150    -2.9510 cd         1 ITW      -0.088400
      8 C08          1.6710    -2.2300    -3.7570 cc         1 ITW      -0.148100
      9 N09          1.0390    -3.4390    -3.8620 na         1 ITW      -0.199400
     10 C10         -0.1130    -3.4310    -3.1050 ca         1 ITW      -0.046200
     11 C11         -1.1040    -4.3760    -2.8620 ca         1 ITW      -0.182000
     12 C12         -2.1600    -4.0610    -2.0360 ca         1 ITW      -0.113000
     13 C13         -2.2470    -2.8090    -1.4430 ca         1 ITW      -0.191000
     14 C14         -1.2840    -1.8660    -1.6680 ca         1 ITW      -0.023000
     15 C15         -0.2010    -2.1660    -2.4970 ca         1 ITW      -0.083800
     16 H11         -1.0460    -5.3550    -3.3200 ha         1 ITW       0.101000
     17 H12         -2.9320    -4.7980    -1.8480 ha         1 ITW       0.105000
     18 H13         -3.0840    -2.5780    -0.7960 ha         1 ITW       0.119000
     19 H14         -1.3580    -0.8910    -1.2010 ha         1 ITW       0.206000
     20 H05          3.9560     0.0000    -0.3340 ha         1 ITW       0.097500
     21 H05A         3.9570     0.0000    -2.2100 ha         1 ITW       0.097500
     22 H06          1.9510     0.4320    -3.3540 hc         1 ITW       0.042200
     23 H06A         0.4250     0.5860    -2.4730 hc         1 ITW       0.042200
     24 H08          2.5990    -1.9680    -4.2520 h4         1 ITW       0.150000
     25 HN09         1.3640    -4.2130    -4.4070 hn         1 ITW       0.274700
@<TRIPOS>BOND
     1     2     1 1
     2     4     2 1
     3     2     3 1
     4     5     4 2
     5     6     4 1
     6    21     5 1
     7    20     5 1
     8     7     6 1
     9    23     6 1
    10     6    22 1
    11     8     7 2
    12     7    15 1
    13    24     8 1
    14     9     8 1
    15    25     9 1
    16     9    10 1
    17    10    11 ar
    18    10    15 ar
    19    16    11 1
    20    11    12 ar
    21    12    17 1
    22    12    13 ar
    23    14    13 ar
    24    13    18 1
    25    15    14 ar
    26    14    19 1
@<TRIPOS>SUBSTRUCTURE
     1 ITW         1 TEMP              0 ****  ****    0 ROOT
