@<TRIPOS>MOLECULE
molecule
   43    45     1     0     0
SMALL
bcc


@<TRIPOS>ATOM
      1 O14          0.0000     0.0000     0.0000 o          1 IU1      -0.534100
      2 C13          1.2130     0.0000     0.0000 c          1 IU1       0.611700
      3 C15          1.9660     0.0000     1.3050 c3         1 IU1       0.063800
      4 N16          1.0120     0.0020     2.4220 n3         1 IU1      -0.686600
      5 C20          0.3500    -1.3210     2.5580 c3         1 IU1       0.143800
      6 C19         -0.1720    -1.3070     4.0160 c3         1 IU1      -0.088400
      7 C18          0.9550    -0.5730     4.7800 c3         1 IU1      -0.088400
      8 C17          1.7010     0.2430     3.7080 c3         1 IU1       0.143800
      9 C11          1.9450    -0.0080    -1.2680 cc         1 IU1      -0.272600
     10 C10          3.4030    -0.0170    -1.4490 cc         1 IU1      -0.167000
     11 C9           3.6220    -0.0220    -2.7740 cd         1 IU1      -0.113600
     12 C21          4.9760    -0.0320    -3.4360 c3         1 IU1      -0.019800
     13 C12          1.4060    -0.0150    -2.5420 cd         1 IU1      -0.018600
     14 C22         -0.0630    -0.0170    -2.8800 c3         1 IU1      -0.025800
     15 N8           2.4210    -0.0180    -3.4270 na         1 IU1       0.024800
     16 C5           2.2680    -0.0210    -4.8210 ca         1 IU1      -0.029200
     17 C4           1.6990     1.0730    -5.4590 ca         1 IU1      -0.095500
     18 C3           1.5480     1.0670    -6.8320 ca         1 IU1      -0.162000
     19 C6           2.6900    -1.1150    -5.5630 ca         1 IU1      -0.095500
     20 C7           2.5380    -1.1160    -6.9360 ca         1 IU1      -0.162000
     21 C2           1.9640    -0.0270    -7.5710 ca         1 IU1       0.140900
     22 F1           1.8160    -0.0310    -8.9140 f          1 IU1      -0.134900
     23 H1           2.5880    -0.8850     1.3630 h1         1 IU1       0.055200
     24 H2           2.5900     0.8840     1.3620 h1         1 IU1       0.055200
     25 H4          -0.4740    -1.4080     1.8600 h1         1 IU1       0.043700
     26 H5           1.0660    -2.1220     2.4180 h1         1 IU1       0.043700
     27 H6          -1.1010    -0.7550     4.0840 hc         1 IU1       0.048200
     28 H7          -0.2900    -2.3170     4.3890 hc         1 IU1       0.048200
     29 H8           1.6240    -1.2900     5.2390 hc         1 IU1       0.048200
     30 H9           0.5310     0.0880     5.5260 hc         1 IU1       0.048200
     31 H10          1.6630     1.2970     3.9550 h1         1 IU1       0.043700
     32 H11          2.7300    -0.0900     3.6430 h1         1 IU1       0.043700
     33 H12          4.1410     0.1870    -0.6820 ha         1 IU1       0.154000
     34 H13          5.7430     0.1570    -2.6940 hc         1 IU1       0.047700
     35 H14          5.1480    -0.9980    -3.8940 hc         1 IU1       0.047700
     36 H15          5.0120     0.7390    -4.1960 hc         1 IU1       0.047700
     37 H16         -0.4900     0.9490    -2.6360 hc         1 IU1       0.058700
     38 H17         -0.1900    -0.2110    -3.9380 hc         1 IU1       0.058700
     39 H18         -0.5640    -0.7880    -2.3080 hc         1 IU1       0.058700
     40 H19          1.3720     1.9290    -4.8810 ha         1 IU1       0.153000
     41 H20          1.1010     1.9190    -7.3310 ha         1 IU1       0.153500
     42 H21          3.1390    -1.9670    -5.0670 ha         1 IU1       0.153000
     43 H22          2.8650    -1.9700    -7.5160 ha         1 IU1       0.153500
@<TRIPOS>BOND
     1     6     5 1
     2     6     7 1
     3     5     4 1
     4     4     3 1
     5     4     8 1
     6     7     8 1
     7     3     2 1
     8     2     1 2
     9     2     9 1
    10    10     9 1
    11    10    11 2
    12     9    13 2
    13    11    12 1
    14    11    15 1
    15    13    15 1
    16    13    14 1
    17    15    16 1
    18    17    16 ar
    19    17    18 ar
    20    16    19 ar
    21    18    21 ar
    22    19    20 ar
    23    21    20 ar
    24    21    22 1
    25     3    23 1
    26     3    24 1
    27     5    25 1
    28     5    26 1
    29     6    27 1
    30     6    28 1
    31     7    29 1
    32     7    30 1
    33     8    31 1
    34     8    32 1
    35    10    33 1
    36    12    34 1
    37    12    35 1
    38    12    36 1
    39    14    37 1
    40    14    38 1
    41    14    39 1
    42    17    40 1
    43    18    41 1
    44    19    42 1
    45    20    43 1
@<TRIPOS>SUBSTRUCTURE
     1 IU1         1 TEMP              0 ****  ****    0 ROOT
