@<TRIPOS>MOLECULE
IU1
   43    45     1     0     0
SMALL
bcc


@<TRIPOS>ATOM
      1 O14          0.0000     0.0000     0.0000 o          1 IU1      -0.569100
      2 C13          1.2130     0.0000     0.0000 c          1 IU1       0.664700
      3 C15          1.9660     0.0000     1.3050 c3         1 IU1       0.062800
      4 N16          1.0120     0.0020     2.4220 n3         1 IU1      -0.518600
      5 C20          0.3500    -1.3210     2.5580 c3         1 IU1       0.144300
      6 C19         -0.1720    -1.3070     4.0160 c3         1 IU1      -0.029400
      7 C18          0.9550    -0.5730     4.7800 c3         1 IU1      -0.029400
      8 C17          1.7010     0.2430     3.7080 c3         1 IU1       0.144300
      9 C11          1.9450    -0.0080    -1.2680 cc         1 IU1      -0.280600
     10 C10          3.4030    -0.0170    -1.4490 cc         1 IU1      -0.125000
     11 C9           3.6220    -0.0220    -2.7740 cd         1 IU1      -0.326600
     12 C21          4.9760    -0.0320    -3.4360 c3         1 IU1       0.108200
     13 C12          1.4060    -0.0150    -2.5420 cd         1 IU1      -0.227600
     14 C22         -0.0630    -0.0170    -2.8800 c3         1 IU1       0.091200
     15 N8           2.4210    -0.0180    -3.4270 na         1 IU1       0.573800
     16 C5           2.2680    -0.0210    -4.8210 ca         1 IU1      -0.209200
     17 C4           1.6990     1.0730    -5.4590 ca         1 IU1      -0.053500
     18 C3           1.5480     1.0670    -6.8320 ca         1 IU1      -0.128500
     19 C6           2.6900    -1.1150    -5.5630 ca         1 IU1      -0.053500
     20 C7           2.5380    -1.1160    -6.9360 ca         1 IU1      -0.128500
     21 C2           1.9640    -0.0270    -7.5710 ca         1 IU1       0.124900
     22 F1           1.8160    -0.0310    -8.9140 f          1 IU1      -0.122900
     23 H1           2.5880    -0.8850     1.3630 h1         1 IU1       0.027200
     24 H2           2.5900     0.8840     1.3620 h1         1 IU1       0.027200
     25 H4          -0.4740    -1.4080     1.8600 h1         1 IU1       0.015450
     26 H5           1.0660    -2.1220     2.4180 h1         1 IU1       0.015450
     27 H6          -1.1010    -0.7550     4.0840 hc         1 IU1       0.017450
     28 H7          -0.2900    -2.3170     4.3890 hc         1 IU1       0.017450
     29 H8           1.6240    -1.2900     5.2390 hc         1 IU1       0.017450
     30 H9           0.5310     0.0880     5.5260 hc         1 IU1       0.017450
     31 H10          1.6630     1.2970     3.9550 h1         1 IU1       0.015450
     32 H11          2.7300    -0.0900     3.6430 h1         1 IU1       0.015450
     33 H12          4.1410     0.1870    -0.6820 ha         1 IU1       0.129000
     34 H13          5.7430     0.1570    -2.6940 hc         1 IU1       0.006700
     35 H14          5.1480    -0.9980    -3.8940 hc         1 IU1       0.006700
     36 H15          5.0120     0.7390    -4.1960 hc         1 IU1       0.006700
     37 H16         -0.4900     0.9490    -2.6360 hc         1 IU1       0.018700
     38 H17         -0.1900    -0.2110    -3.9380 hc         1 IU1       0.018700
     39 H18         -0.5640    -0.7880    -2.3080 hc         1 IU1       0.018700
     40 H19          1.3720     1.9290    -4.8810 ha         1 IU1       0.122000
     41 H20          1.1010     1.9190    -7.3310 ha         1 IU1       0.125500
     42 H21          3.1390    -1.9670    -5.0670 ha         1 IU1       0.122000
     43 H22          2.8650    -1.9700    -7.5160 ha         1 IU1       0.125500
@<TRIPOS>BOND
     1     1     2 2   
     2     2     3 1   
     3     2     9 1   
     4     3     4 1   
     5     3    23 1   
     6     3    24 1   
     7     4     5 1   
     8     4     8 1   
     9     5     6 1   
    10     5    25 1   
    11     5    26 1   
    12     6     7 1   
    13     6    27 1   
    14     6    28 1   
    15     7     8 1   
    16     7    29 1   
    17     7    30 1   
    18     8    31 1   
    19     8    32 1   
    20     9    10 1   
    21     9    13 2   
    22    10    11 2   
    23    10    33 1   
    24    11    12 1   
    25    11    15 1   
    26    12    34 1   
    27    12    35 1   
    28    12    36 1   
    29    13    14 1   
    30    13    15 1   
    31    14    37 1   
    32    14    38 1   
    33    14    39 1   
    34    15    16 1   
    35    16    17 ar  
    36    16    19 ar  
    37    17    18 ar  
    38    17    40 1   
    39    18    21 ar  
    40    18    41 1   
    41    19    20 ar  
    42    19    42 1   
    43    20    21 ar  
    44    20    43 1   
    45    21    22 1   
@<TRIPOS>SUBSTRUCTURE
     1 IU1         1 TEMP              0 ****  ****    0 ROOT
