@<TRIPOS>MOLECULE
IU5
   67    70     1     0     0
SMALL
bcc


@<TRIPOS>ATOM
      1 C1         -0.0560   -0.0470    0.1760 c3        1 IU5     -0.072400
      2 C10         1.4770    0.0080    0.1420 c3        1 IU5     -0.035000
      3 C11         1.5620   -0.9620   -2.2130 c3        1 IU5     -0.072400
      4 C12         2.1420   -2.0120   -3.1480 c3        1 IU5     -0.066400
      5 C13         3.6610   -1.9960   -3.1200 c3        1 IU5     -0.047000
      6 C14         4.0810   -2.2030   -1.6410 c3        1 IU5     -0.060700
      7 C15         5.5630   -2.5350   -1.7240 c3        1 IU5     -0.066400
      8 C16         5.7080   -3.3050   -3.0390 c3        1 IU5     -0.081400
      9 C17         4.3650   -3.2040   -3.7910 c3        1 IU5     -0.047700
     10 C18         4.1920   -0.6990   -3.7040 c3        1 IU5     -0.080100
     11 C19         1.8510    1.4130   -0.3210 c3        1 IU5     -0.088100
     12 O1A         5.5410   -1.0200    0.6470 oh        1 IU5     -0.591800
     13 O1B        -0.6830   -0.5280    3.0360 oh        1 IU5     -0.603800
     14 C2         -0.6160   -1.3080    0.7930 c3        1 IU5     -0.072400
     15 C20         4.5620   -3.1520   -5.3020 c3        1 IU5     -0.061700
     16 C21         3.2410   -3.0130   -6.0350 c3        1 IU5     -0.086100
     17 C22         5.2820   -4.4130   -5.7810 c3        1 IU5     -0.067400
     18 C23         5.8900   -4.2590   -7.1540 c3        1 IU5     -0.195400
     19 C24         6.8120   -5.4460   -7.4890 c         1 IU5      0.907600
     20 C3         -0.0850   -1.5200    2.2060 c3        1 IU5      0.143100
     21 C4          1.4360   -1.4630    2.2290 c3        1 IU5     -0.109400
     22 O4          7.6270   -5.8470   -6.6080 o         1 IU5     -0.852300
     23 O4A         6.7200   -5.9520   -8.6450 o         1 IU5     -0.852300
     24 C5          1.9900   -0.2030    1.5800 c3        1 IU5     -0.046700
     25 C6          3.5050   -0.2090    1.6320 c3        1 IU5     -0.109400
     26 C7          4.1300   -1.2250    0.6800 c3        1 IU5      0.146100
     27 C8          3.6180   -1.0620   -0.7550 c3        1 IU5     -0.041700
     28 C9          2.0780   -1.0630   -0.7810 c3        1 IU5     -0.046700
     29 HC11       -0.4620    0.0750   -0.8610 hc        1 IU5      0.046700
     30 HC12       -0.4190    0.8280    0.7810 hc        1 IU5      0.046700
     31 H111        0.4470   -1.0860   -2.2080 hc        1 IU5      0.036200
     32 H112        1.7850    0.0590   -2.6200 hc        1 IU5      0.036200
     33 H121        1.7750   -3.0290   -2.8470 hc        1 IU5      0.042200
     34 H122        1.7700   -1.8160   -4.1870 hc        1 IU5      0.042200
     35 H141        3.5590   -3.1360   -1.2740 hc        1 IU5      0.035700
     36 H151        6.1790   -1.6020   -1.7250 hc        1 IU5      0.040700
     37 H152        5.8870   -3.1440   -0.8460 hc        1 IU5      0.040700
     38 H161        6.5340   -2.8710   -3.6550 hc        1 IU5      0.054700
     39 H162        5.9580   -4.3770   -2.8460 hc        1 IU5      0.054700
     40 H171        3.7540   -4.1210   -3.5620 hc        1 IU5      0.040700
     41 H181        5.3090   -0.6920   -3.6710 hc        1 IU5      0.033700
     42 H182        3.8690   -0.5970   -4.7690 hc        1 IU5      0.033700
     43 H183        3.8170    0.1900   -3.1450 hc        1 IU5      0.033700
     44 H191        1.5330    2.1670    0.4390 hc        1 IU5      0.035700
     45 H192        2.9520    1.5110   -0.4740 hc        1 IU5      0.035700
     46 H193        1.3390    1.6500   -1.2850 hc        1 IU5      0.035700
     47 HOA1        5.8640   -1.2080    1.5350 ho        1 IU5      0.389000
     48 HOB1       -0.1530   -0.4750    3.8390 ho        1 IU5      0.395000
     49 HC21       -0.3460   -2.2030    0.1750 hc        1 IU5      0.050700
     50 HC22       -1.7340   -1.2340    0.8310 hc        1 IU5      0.050700
     51 H201        5.2070   -2.2630   -5.5510 hc        1 IU5      0.043700
     52 H211        2.8450   -1.9720   -5.9600 hc        1 IU5      0.025033
     53 H212        3.3790   -3.2530   -7.1170 hc        1 IU5      0.025033
     54 H213        2.4810   -3.7130   -5.6120 hc        1 IU5      0.025033
     55 H221        6.1100   -4.6830   -5.0720 hc        1 IU5      0.047700
     56 H222        4.5580   -5.2690   -5.7840 hc        1 IU5      0.047700
     57 H231        6.5080   -3.3260   -7.1980 hc        1 IU5      0.019700
     58 H232        5.0960   -4.1820   -7.9380 hc        1 IU5      0.019700
     59 HC31       -0.4190   -2.5290    2.5860 h1        1 IU5      0.027700
     60 HC41        1.8300   -2.3730    1.7040 hc        1 IU5      0.045200
     61 HC42        1.7930   -1.5100    3.2920 hc        1 IU5      0.045200
     62 HC51        1.6210    0.6710    2.1940 hc        1 IU5      0.047700
     63 HC61        3.8920    0.8110    1.3690 hc        1 IU5      0.042200
     64 HC62        3.8440   -0.4330    2.6780 hc        1 IU5      0.042200
     65 HC71        3.9170   -2.2720    1.0400 h1        1 IU5      0.029700
     66 HC81        4.0180   -0.0900   -1.1510 hc        1 IU5      0.070700
     67 HC91        1.7430   -2.0660   -0.3830 hc        1 IU5      0.042700
@<TRIPOS>BOND
     1    1    2 1   
     2    1   14 1   
     3    1   29 1   
     4    1   30 1   
     5    2   11 1   
     6    2   24 1   
     7    2   28 1   
     8    3    4 1   
     9    3   28 1   
    10    3   31 1   
    11    3   32 1   
    12    4    5 1   
    13    4   33 1   
    14    4   34 1   
    15    5    6 1   
    16    5    9 1   
    17    5   10 1   
    18    6    7 1   
    19    6   27 1   
    20    6   35 1   
    21    7    8 1   
    22    7   36 1   
    23    7   37 1   
    24    8    9 1   
    25    8   38 1   
    26    8   39 1   
    27    9   15 1   
    28    9   40 1   
    29   10   41 1   
    30   10   42 1   
    31   10   43 1   
    32   11   44 1   
    33   11   45 1   
    34   11   46 1   
    35   12   26 1   
    36   12   47 1   
    37   13   20 1   
    38   13   48 1   
    39   14   20 1   
    40   14   49 1   
    41   14   50 1   
    42   15   16 1   
    43   15   17 1   
    44   15   51 1   
    45   16   52 1   
    46   16   53 1   
    47   16   54 1   
    48   17   18 1   
    49   17   55 1   
    50   17   56 1   
    51   18   19 1   
    52   18   57 1   
    53   18   58 1   
    54   19   22 1   
    55   19   23 1   
    56   20   21 1   
    57   20   59 1   
    58   21   24 1   
    59   21   60 1   
    60   21   61 1   
    61   24   25 1   
    62   24   62 1   
    63   25   26 1   
    64   25   63 1   
    65   25   64 1   
    66   26   27 1   
    67   26   65 1   
    68   27   28 1   
    69   27   66 1   
    70   28   67 1   
@<TRIPOS>SUBSTRUCTURE
     1 IU5         1 TEMP              0 ****  ****    0 ROOT
