@<TRIPOS>MOLECULE
molecule
   67    70     1     0     0
SMALL
bcc


@<TRIPOS>ATOM
      1 C1           0.0000     0.0000     0.0000 c3         1 IU5      -0.065400
      2 C10          1.5300     0.0000     0.0000 c3         1 IU5      -0.056000
      3 C11          1.4850    -1.2650    -2.1590 c3         1 IU5      -0.077400
      4 C12          2.0540    -2.4460    -2.9600 c3         1 IU5      -0.063400
      5 C13          3.5660    -2.3760    -2.9270 c3         1 IU5      -0.061000
      6 C14          4.0330    -2.4890    -1.4500 c3         1 IU5      -0.067700
      7 C15          5.5480    -2.6500    -1.6130 c3         1 IU5      -0.067400
      8 C16          5.6660    -3.6230    -2.8180 c3         1 IU5      -0.082400
      9 C17          4.3540    -3.4770    -3.6280 c3         1 IU5      -0.048700
     10 C18          4.0320    -1.0080    -3.4260 c3         1 IU5      -0.096100
     11 C19          2.0410     1.2480    -0.7230 c3         1 IU5      -0.087100
     12 O1A          5.5110    -1.2420     0.7210 oh         1 IU5      -0.598800
     13 O1B         -0.4770    -0.0870     2.8380 oh         1 IU5      -0.605800
     14 C2          -0.5100    -1.2490     0.7190 c3         1 IU5      -0.092400
     15 C20          4.6640    -3.0730    -5.0700 c3         1 IU5      -0.076700
     16 C21          3.3550    -2.8680    -5.8340 c3         1 IU5      -0.095100
     17 C22          5.4830    -4.1740    -5.7450 c3         1 IU5      -0.061400
     18 C23          5.7930    -3.7690    -7.1870 c3         1 IU5      -0.186400
     19 C24          6.5990    -4.8550    -7.8520 c          1 IU5       0.891600
     20 C3           0.0000    -1.2510     2.1610 c3         1 IU5       0.147100
     21 C4           1.5290    -1.2500     2.1620 c3         1 IU5      -0.090400
     22 O4           6.8940    -5.8500    -7.2360 o          1 IU5      -0.857800
     23 O4A          6.9880    -4.7160    -9.1290 o          1 IU5      -0.857800
     24 C5           2.0380     0.0000     1.4430 c3         1 IU5      -0.047700
     25 C6           3.5680     0.0010     1.4440 c3         1 IU5      -0.111400
     26 C7           4.0820    -1.2450     0.7190 c3         1 IU5       0.149100
     27 C8           3.5750    -1.2390    -0.7250 c3         1 IU5      -0.055700
     28 C9           2.0390    -1.2390    -0.7380 c3         1 IU5      -0.055700
     29 HC11        -0.3600     0.8830     0.5140 hc         1 IU5       0.049200
     30 HC12        -0.3600    -0.0010    -1.0220 hc         1 IU5       0.049200
     31 H111         0.4060    -1.3550    -2.1160 hc         1 IU5       0.041200
     32 H112         1.7490    -0.3400    -2.6580 hc         1 IU5       0.041200
     33 H121         1.7250    -3.3780    -2.5150 hc         1 IU5       0.044200
     34 H122         1.7110    -2.3870    -3.9860 hc         1 IU5       0.044200
     35 H141         3.6080    -3.3720    -0.9880 hc         1 IU5       0.044700
     36 H151         5.9830    -3.0890    -0.7230 hc         1 IU5       0.045700
     37 H152         6.0100    -1.6970    -1.8440 hc         1 IU5       0.045700
     38 H161         5.7720    -4.6410    -2.4630 hc         1 IU5       0.049200
     39 H162         6.5140    -3.3480    -3.4340 hc         1 IU5       0.049200
     40 H171         3.7970    -4.4060    -3.6050 hc         1 IU5       0.050700
     41 H181         5.1140    -0.9850    -3.4590 hc         1 IU5       0.038367
     42 H182         3.6740    -0.2370    -2.7540 hc         1 IU5       0.038367
     43 H183         3.6370    -0.8320    -4.4190 hc         1 IU5       0.038367
     44 H191         1.8790     2.1180    -0.0990 hc         1 IU5       0.037367
     45 H192         1.5050     1.3690    -1.6570 hc         1 IU5       0.037367
     46 H193         3.0990     1.1400    -0.9250 hc         1 IU5       0.037367
     47 HOA1         5.8240    -1.4340     1.5900 ho         1 IU5       0.391000
     48 HOB1        -1.0180    -0.3450     3.5650 ho         1 IU5       0.393000
     49 HC21        -0.1470    -2.1330     0.2080 hc         1 IU5       0.046200
     50 HC22        -1.5930    -1.2470     0.7210 hc         1 IU5       0.046200
     51 H201         5.2310    -2.1490    -5.0710 hc         1 IU5       0.046700
     52 H211         2.6420    -3.6280    -5.5390 hc         1 IU5       0.030367
     53 H212         2.9540    -1.8880    -5.6060 hc         1 IU5       0.030367
     54 H213         3.5430    -2.9430    -6.8980 hc         1 IU5       0.030367
     55 H221         6.4110    -4.3180    -5.2040 hc         1 IU5       0.047200
     56 H222         4.9170    -5.0980    -5.7440 hc         1 IU5       0.047200
     57 H231         4.8650    -3.6250    -7.7280 hc         1 IU5       0.028200
     58 H232         6.3590    -2.8460    -7.1890 hc         1 IU5       0.028200
     59 HC31        -0.3580    -2.1400     2.6670 h1         1 IU5       0.022700
     60 HC41         1.8890    -1.2480     3.1840 hc         1 IU5       0.048200
     61 HC42         1.8900    -2.1330     1.6480 hc         1 IU5       0.048200
     62 HC51         1.6760     0.8840     1.9540 hc         1 IU5       0.066700
     63 HC61         3.9270     0.8870     0.9340 hc         1 IU5       0.045200
     64 HC62         3.9270    -0.0040     2.4660 hc         1 IU5       0.045200
     65 HC71         3.7170    -2.1310     1.2250 h1         1 IU5       0.027700
     66 HC81         3.9450    -0.3610    -1.2390 hc         1 IU5       0.080700
     67 HC91         1.6900    -2.1210    -0.2150 hc         1 IU5       0.046700
@<TRIPOS>BOND
     1     1     2 1
     2     1    14 1
     3     1    29 1
     4     1    30 1
     5     2    11 1
     6     2    24 1
     7     2    28 1
     8     3     4 1
     9     3    28 1
    10     3    31 1
    11     3    32 1
    12     4     5 1
    13     4    33 1
    14     4    34 1
    15     5     6 1
    16     5     9 1
    17     5    10 1
    18     6     7 1
    19     6    27 1
    20     6    35 1
    21     7     8 1
    22     7    36 1
    23     7    37 1
    24     8     9 1
    25     8    38 1
    26     8    39 1
    27     9    15 1
    28     9    40 1
    29    10    41 1
    30    10    42 1
    31    10    43 1
    32    11    44 1
    33    11    45 1
    34    11    46 1
    35    12    26 1
    36    12    47 1
    37    13    20 1
    38    13    48 1
    39    14    20 1
    40    14    49 1
    41    14    50 1
    42    15    16 1
    43    15    17 1
    44    15    51 1
    45    16    52 1
    46    16    53 1
    47    16    54 1
    48    17    18 1
    49    17    55 1
    50    17    56 1
    51    18    19 1
    52    18    57 1
    53    18    58 1
    54    19    22 1
    55    19    23 1
    56    20    21 1
    57    20    59 1
    58    21    24 1
    59    21    60 1
    60    21    61 1
    61    24    25 1
    62    24    62 1
    63    25    26 1
    64    25    63 1
    65    25    64 1
    66    26    27 1
    67    26    65 1
    68    27    28 1
    69    27    66 1
    70    28    67 1
@<TRIPOS>SUBSTRUCTURE
     1 IU5         1 TEMP              0 ****  ****    0 ROOT
