@<TRIPOS>MOLECULE
IUL
   47    53     1     0     0
SMALL
bcc


@<TRIPOS>ATOM
      1 C1           0.0000     0.0000     0.0000 ca         1 IUL      -0.065000
      2 C2           1.3790     0.0000     0.0000 ca         1 IUL      -0.091500
      3 C3           2.0740     0.0000     1.1970 ca         1 IUL      -0.102000
      4 C4           1.3920     0.0000     2.4000 ca         1 IUL      -0.091500
      5 C5           0.0130     0.0010     2.4150 ca         1 IUL      -0.065000
      6 C6          -0.6950     0.0000     1.2110 ca         1 IUL       0.032000
      7 C7           3.5810    -0.0000     1.1880 c3         1 IUL       0.140000
      8 N8           5.1270    -1.5270     3.3490 n2         1 IUL      -0.272000
      9 N10          4.0450     0.9010     2.2600 n7         1 IUL      -0.048000
     10 C11          4.1070    -2.5150     3.9480 cx         1 IUL      -0.080000
     11 C12          3.6200    -3.6770     3.7560 DU         1 IUL      -0.351000
     12 C13          3.1150    -4.6110     4.4400 c2         1 IUL      -0.050000
     13 C14          3.1030    -4.2540     5.6940 c2         1 IUL      -0.029000
     14 C15          3.4930    -3.1760     6.3260 c2         1 IUL      -0.169000
     15 C16          4.1100    -2.0440     5.4560 c2         1 IUL      -0.024000
     16 C17          3.4070    -2.6630     7.8830 c3         1 IUL       0.443000
     17 F18          3.7570    -4.0690     8.5090 f          1 IUL      -0.146333
     18 F19          4.4560    -1.7910     8.1390 f          1 IUL      -0.146333
     19 F20          2.0810    -2.0920     8.3250 f          1 IUL      -0.146333
     20 O21          5.1590     1.0760     3.9750 o          1 IUL      -0.115000
     21 C22         -2.1270     0.0010     1.2190 c1         1 IUL      -0.099000
     22 N23         -3.2630     0.0020     1.2060 n1         1 IUL      -0.053000
     23 C25          4.0470    -1.4330     1.2630 c2         1 IUL      -0.556000
     24 C26          4.1010    -2.0130     0.0580 c2         1 IUL       0.505000
     25 N27          3.8030    -3.6730     0.1110 ns         1 IUL      -0.456000
     26 N28          3.4910    -4.3860     1.5620 n3         1 IUL       0.058000
     27 C29          4.7090    -3.6500     2.3740 DU         1 IUL      -0.200000
     28 O30          4.1020    -1.6580    -0.9270 o          1 IUL      -0.254000
     29 C31          4.0760    -5.4050     1.2070 c3         1 IUL      -0.126000
     30 H1          -0.5420     0.0000    -0.9380 ha         1 IUL       0.115000
     31 H2           1.9200    -0.0000    -0.9380 ha         1 IUL       0.111000
     32 H4           1.9410     0.0000     3.3340 ha         1 IUL       0.111000
     33 H5          -0.5180     0.0010     3.3590 ha         1 IUL       0.115000
     34 H7           3.9160     0.4090     0.2430 h1         1 IUL       0.082000
     35 HN10         3.8550     1.8800     2.1710 hn         1 IUL       0.120000
     36 H12          3.9050    -4.0420     2.7760 DU         1 IUL       0.227000
     37 H13          2.7430    -5.5370     4.0180 ha         1 IUL       0.140000
     38 H14          2.6820    -5.0240     6.3300 ha         1 IUL       0.091000
     39 H16          4.6770    -1.2110     5.8530 ha         1 IUL       0.141000
     40 HN27         3.9210    -4.2290    -0.7130 hn         1 IUL       0.125000
     41 H29          4.8070    -4.0770     3.3650 DU         1 IUL       0.227000
     42 H29A         5.6370    -3.7490     1.8240 ha         1 IUL       0.095000
     43 H31          4.9880    -5.1350     0.6880 h1         1 IUL       0.051333
     44 H31A         4.3190    -6.0040     2.0760 h1         1 IUL       0.051333
     45 H31B         3.4380    -5.9740     0.5420 h1         1 IUL       0.051333
     46 C9           4.7040     0.4820     3.3420 c1         1 IUL       0.418000
     47 C24          4.3450    -2.2980     2.4670 cx         1 IUL       0.286000
@<TRIPOS>BOND
     1     1     2 1   
     2     1     6 1   
     3     1    30 1   
     4     2     3 1   
     5     2    31 1   
     6     3     4 1   
     7     3     7 1   
     8     4     5 1   
     9     4    32 1   
    10     5     6 1   
    11     5    33 1   
    12     6    21 1   
    13     7     9 1   
    14     7    23 1   
    15     7    34 1   
    16     8    10 1   
    17     8    47 1   
    18     9    35 1   
    19     9    46 1   
    20    10    11 1   
    21    10    15 1   
    22    10    47 1   
    23    11    12 1   
    24    11    27 1   
    25    11    36 1   
    26    11    41 1   
    27    12    13 1   
    28    12    37 1   
    29    13    14 1   
    30    13    38 1   
    31    14    15 1   
    32    14    16 1   
    33    15    39 1   
    34    16    17 1   
    35    16    18 1   
    36    16    19 1   
    37    20    46 1   
    38    21    22 1   
    39    23    24 1   
    40    23    47 1   
    41    24    25 1   
    42    24    28 1   
    43    25    26 1   
    44    25    40 1   
    45    26    27 1   
    46    26    29 1   
    47    27    36 1   
    48    27    41 1   
    49    27    42 1   
    50    27    47 1   
    51    29    43 1   
    52    29    44 1   
    53    29    45 1   
@<TRIPOS>SUBSTRUCTURE
     1 IUL         1 TEMP              0 ****  ****    0 ROOT
