@<TRIPOS>MOLECULE
molecule
   47    50     1     0     0
SMALL
bcc


@<TRIPOS>ATOM
      1 C1           0.0000     0.0000     0.0000 ca         1 IUL      -0.085000
      2 C2           1.3790     0.0000     0.0000 ca         1 IUL      -0.120500
      3 C3           2.0740     0.0000     1.1970 ca         1 IUL      -0.088300
      4 C4           1.3920     0.0000     2.4000 ca         1 IUL      -0.120500
      5 C5           0.0130     0.0010     2.4150 ca         1 IUL      -0.085000
      6 C6          -0.6950     0.0000     1.2110 ca         1 IUL      -0.020000
      7 C7           3.5810    -0.0000     1.1880 c3         1 IUL       0.271200
      8 N8           5.1270    -1.5270     3.3490 n          1 IUL      -0.255200
      9 N10          4.0450     0.9010     2.2600 ns         1 IUL      -0.617900
     10 C11          4.1070    -2.5150     3.9480 ca         1 IUL      -0.161400
     11 C12          3.6200    -3.6770     3.7560 ca         1 IUL      -0.278000
     12 C13          3.1150    -4.6110     4.4400 ca         1 IUL      -0.100000
     13 C14          3.1030    -4.2540     5.6940 ca         1 IUL      -0.052000
     14 C15          3.4930    -3.1760     6.3260 ca         1 IUL      -0.154300
     15 C16          4.1100    -2.0440     5.4560 ca         1 IUL      -0.044000
     16 C17          3.4070    -2.6630     7.8830 c3         1 IUL       0.626200
     17 F18          3.7570    -4.0690     8.5090 f          1 IUL      -0.213300
     18 F19          4.4560    -1.7910     8.1390 f          1 IUL      -0.213300
     19 F20          2.0810    -2.0920     8.3250 f          1 IUL      -0.213300
     20 O21          5.1590     1.0760     3.9750 o          1 IUL      -0.366500
     21 C22         -2.1270     0.0010     1.2190 cg         1 IUL       0.239800
     22 N23         -3.2630     0.0020     1.2060 n1         1 IUL      -0.363800
     23 C25          4.0470    -1.4330     1.2630 ce         1 IUL      -0.518400
     24 C26          4.1010    -2.0130     0.0580 c          1 IUL       0.854700
     25 N27          3.8030    -3.6730     0.1110 ns         1 IUL      -0.737300
     26 N28          3.4910    -4.3860     1.5620 n3         1 IUL      -0.327600
     27 C29          4.7090    -3.6500     2.3740 c3         1 IUL       0.081000
     28 O30          4.1020    -1.6580    -0.9270 o          1 IUL      -0.490500
     29 C31          4.0760    -5.4050     1.2070 c3         1 IUL       0.080100
     30 H1          -0.5420     0.0000    -0.9380 ha         1 IUL       0.143500
     31 H2           1.9200    -0.0000    -0.9380 ha         1 IUL       0.138000
     32 H4           1.9410     0.0000     3.3340 ha         1 IUL       0.138000
     33 H5          -0.5180     0.0010     3.3590 ha         1 IUL       0.143500
     34 H7           3.9160     0.4090     0.2430 h1         1 IUL       0.075700
     35 HN10         3.8550     1.8800     2.1710 hn         1 IUL       0.355500
     36 H12          3.9050    -4.0420     2.7760 ha         1 IUL       0.309000
     37 H13          2.7430    -5.5370     4.0180 ha         1 IUL       0.171000
     38 H14          2.6820    -5.0240     6.3300 ha         1 IUL       0.122000
     39 H16          4.6770    -1.2110     5.8530 ha         1 IUL       0.178000
     40 HN27         3.9210    -4.2290    -0.7130 hn         1 IUL       0.286500
     41 H29          4.8070    -4.0770     3.3650 h1         1 IUL       0.092200
     42 H29A         5.6370    -3.7490     1.8240 h1         1 IUL       0.092200
     43 H31          4.9880    -5.1350     0.6880 h1         1 IUL       0.041700
     44 H31A         4.3190    -6.0040     2.0760 h1         1 IUL       0.041700
     45 H31B         3.4380    -5.9740     0.5420 h1         1 IUL       0.041700
     46 C9           4.7040     0.4820     3.3420 c          1 IUL       0.885500
     47 C24          4.3450    -2.2980     2.4670 c2         1 IUL       0.219400
@<TRIPOS>BOND
     1     1     2 ar
     2     1     6 ar
     3     2     3 ar
     4     3     4 ar
     5     3     7 1
     6     4     5 ar
     7     5     6 ar
     8     6    21 1
     9     7     9 1
    10     7    23 1
    11     8    46 1
    12     8    10 1
    13     8    47 1
    14    46     9 1
    15    46    20 2
    16    10    11 ar
    17    10    15 ar
    18    11    12 ar
    19    12    13 ar
    20    13    14 ar
    21    14    15 ar
    22    14    16 1
    23    16    17 1
    24    16    18 1
    25    16    19 1
    26    21    22 3
    27    47    23 2
    28    47    27 1
    29    23    24 1
    30    24    25 1
    31    24    28 2
    32    25    26 1
    33    26    27 1
    34    26    29 1
    35     1    30 1
    36     2    31 1
    37     4    32 1
    38     5    33 1
    39     7    34 1
    40     9    35 1
    41    11    36 1
    42    12    37 1
    43    13    38 1
    44    15    39 1
    45    25    40 1
    46    27    41 1
    47    27    42 1
    48    29    43 1
    49    29    44 1
    50    29    45 1
@<TRIPOS>SUBSTRUCTURE
     1 IUL         1 TEMP              0 ****  ****    0 ROOT
