@<TRIPOS>MOLECULE
molecule
   18    19     1     0     0
SMALL
bcc


@<TRIPOS>ATOM
      1 N1           0.0000     0.0000     0.0000 ns         1 IUP      -0.576500
      2 C2           1.3420     0.0000     0.0000 c          1 IUP       0.828500
      3 C6          -0.7530    -0.2470     1.0950 c          1 IUP       0.687500
      4 N3           2.0610     0.0000     1.1530 ns         1 IUP      -0.456400
      5 O11          1.9310    -0.0010    -1.0620 o          1 IUP      -0.609500
      6 C4           1.3200     0.0380     2.2980 c2         1 IUP       0.521900
      7 C5          -0.0410    -0.6530     2.3630 c3         1 IUP       0.113900
      8 N9           1.4880     0.6080     3.4420 ne         1 IUP      -0.625100
      9 O13         -1.9600    -0.1460     1.0610 o          1 IUP      -0.543500
     10 N7          -0.6370    -0.0710     3.5650 ns         1 IUP      -0.603900
     11 C8           0.3690     0.5880     4.1840 c          1 IUP       0.842900
     12 O24          0.2720     1.1010     5.2830 o          1 IUP      -0.559500
     13 O2           0.0900    -2.0730     2.4560 os         1 IUP      -0.206800
     14 O3          -1.1790    -2.8020     2.3280 oh         1 IUP      -0.390000
     15 H3          -1.0320    -3.7200     2.4860 ho         1 IUP       0.430000
     16 H31          3.0610    -0.0250     1.1620 hn         1 IUP       0.390500
     17 H1          -0.4710     0.1940    -0.8610 hn         1 IUP       0.373500
     18 H7          -1.5640    -0.2200     3.9120 hn         1 IUP       0.382500
@<TRIPOS>BOND
     1     1     2 1
     2     1     3 1
     3     2     4 1
     4     2     5 2
     5     3     7 1
     6     3     9 2
     7     4     6 1
     8     6     7 1
     9     6     8 2
    10     7    10 1
    11     7    13 1
    12     8    11 1
    13    10    11 1
    14    11    12 2
    15    13    14 1
    16    14    15 1
    17     1    17 1
    18     4    16 1
    19    10    18 1
@<TRIPOS>SUBSTRUCTURE
     1 IUP         1 TEMP              0 ****  ****    0 ROOT
