@<TRIPOS>MOLECULE
molecule
   12    12     1     0     0
SMALL
bcc


@<TRIPOS>ATOM
      1 N1           0.0000     0.0000     0.0000 ns         1 IUR      -0.451100
      2 C2           1.3450     0.0000     0.0000 c          1 IUR       0.806500
      3 O2           1.9450    -0.0010    -1.0570 o          1 IUR      -0.642500
      4 N3           2.0370     0.0000     1.1540 ns         1 IUR      -0.556500
      5 C4           1.3870     0.0060     2.3360 c          1 IUR       0.711700
      6 O4           2.0130     0.0060     3.3810 o          1 IUR      -0.598500
      7 C5          -0.0280     0.0020     2.3510 cc         1 IUR      -0.167400
      8 C6          -0.6970     0.0010     1.1780 cd         1 IUR       0.071600
      9 I5          -1.0710     0.0040     4.1670 i          1 IUR      -0.080800
     10 H1          -0.4960    -0.0010    -0.8690 hn         1 IUR       0.362500
     11 H3           3.0380    -0.0000     1.1360 hn         1 IUR       0.370500
     12 H6          -1.7800    -0.0010     1.1700 h4         1 IUR       0.174000
@<TRIPOS>BOND
     1     1     2 1
     2     1     8 1
     3     1    10 1
     4     2     3 2
     5     2     4 1
     6     4     5 1
     7     4    11 1
     8     5     6 2
     9     5     7 1
    10     7     8 2
    11     7     9 1
    12     8    12 1
@<TRIPOS>SUBSTRUCTURE
     1 IUR         1 TEMP              0 ****  ****    0 ROOT
