@<TRIPOS>MOLECULE
molecule
   53    56     1     0     0
SMALL
bcc


@<TRIPOS>ATOM
      1 C1           0.0000     0.0000     0.0000 ce         1 IUY      -0.282400
      2 C2           1.5030     0.0000     0.0000 c3         1 IUY       0.168500
      3 C3          -0.7270     0.2510     1.1010 c2         1 IUY       0.107700
      4 N4          -0.1300     0.5150     2.3100 nh         1 IUY      -0.087700
      5 C5          -2.2320     0.2450     1.0090 c3         1 IUY      -0.054900
      6 C6           2.0050     1.2300    -0.7120 ca         1 IUY      -0.129300
      7 C7           2.8000     1.0980    -1.8360 ca         1 IUY      -0.102000
      8 C8           3.2630     2.2200    -2.4940 ca         1 IUY      -0.087000
      9 C9           2.9260     3.4900    -2.0220 ca         1 IUY       0.028000
     10 C10          2.1230     3.6150    -0.8870 ca         1 IUY      -0.087000
     11 C11          1.6630     2.4850    -0.2420 ca         1 IUY      -0.102000
     12 C12         -0.6770    -0.2700    -1.2110 c          1 IUY       0.666300
     13 O13         -1.8900    -0.3610    -1.2230 o          1 IUY      -0.541000
     14 O14          0.0240    -0.4280    -2.3540 os         1 IUY      -0.426900
     15 C15         -0.7260    -0.6990    -3.5410 c3         1 IUY       0.142400
     16 C16          0.2330    -0.8460    -4.7250 c3         1 IUY      -0.095100
     17 C17          3.4020     4.6580    -2.6990 cg         1 IUY       0.210800
     18 N18          3.7820     5.5750    -3.2520 n1         1 IUY      -0.304800
     19 N19          1.9980     0.0000     1.3800 na         1 IUY      -0.004100
     20 C20          1.2300     0.2430     2.4250 cz         1 IUY       0.153400
     21 N21          1.9850     0.1750     3.5440 na         1 IUY      -0.149100
     22 C22          3.2680    -0.1290     3.1450 cc         1 IUY      -0.122300
     23 C23          3.2480    -0.2320     1.8010 cd         1 IUY      -0.119300
     24 C24         -0.8600     1.0360     3.3830 ca         1 IUY      -0.061200
     25 C25         -1.0890     0.2590     4.5110 ca         1 IUY      -0.117000
     26 C26         -1.8100     0.7770     5.5700 ca         1 IUY      -0.110000
     27 C27         -2.3050     2.0660     5.5060 ca         1 IUY      -0.048000
     28 C28         -2.0790     2.8420     4.3840 ca         1 IUY      -0.161300
     29 C29         -1.3530     2.3320     3.3250 ca         1 IUY      -0.064000
     30 C30         -2.6200     4.2470     4.3180 c3         1 IUY       0.679200
     31 F31         -3.3090     4.5360     5.5010 f          1 IUY      -0.208967
     32 F32         -1.5610     5.1480     4.1630 f          1 IUY      -0.208967
     33 F33         -3.4920     4.3610     3.2310 f          1 IUY      -0.208967
     34 H2           1.8610    -0.8870    -0.5080 h1         1 IUY       0.114700
     35 H5          -2.5520     0.9790     0.2800 hc         1 IUY       0.088700
     36 H5A         -2.5710    -0.7380     0.7040 hc         1 IUY       0.088700
     37 H5B         -2.6540     0.4880     1.9760 hc         1 IUY       0.088700
     38 H7           3.0610     0.1120    -2.2030 ha         1 IUY       0.137500
     39 H8           3.8850     2.1140    -3.3740 ha         1 IUY       0.160000
     40 H10          1.8580     4.5980    -0.5160 ha         1 IUY       0.160000
     41 H11          1.0360     2.5830     0.6360 ha         1 IUY       0.137500
     42 H15         -1.3050    -1.6040    -3.4030 h1         1 IUY       0.056700
     43 H15A        -1.3930     0.1300    -3.7440 h1         1 IUY       0.056700
     44 H16          0.9730    -1.6050    -4.5000 hc         1 IUY       0.053033
     45 H16A         0.7290     0.0990    -4.9080 hc         1 IUY       0.053033
     46 H16B        -0.3250    -1.1370    -5.6070 hc         1 IUY       0.053033
     47 HN21         1.6620     0.3170     4.4810 hn         1 IUY       0.359700
     48 H22          4.1230    -0.2560     3.7970 h4         1 IUY       0.231000
     49 H23          4.1060    -0.4600     1.1810 h4         1 IUY       0.230000
     50 H25         -0.7010    -0.7520     4.5610 ha         1 IUY       0.148000
     51 H26         -1.9890     0.1720     6.4510 ha         1 IUY       0.168000
     52 H27         -2.8710     2.4710     6.3360 ha         1 IUY       0.179000
     53 H29         -1.1720     2.9420     2.4470 ha         1 IUY       0.164000
@<TRIPOS>BOND
     1     1     2 1
     2     1     3 2
     3     1    12 1
     4     2     6 1
     5     2    19 1
     6     3     4 1
     7     3     5 1
     8     4    20 2
     9     4    24 1
    10     6     7 ar
    11     6    11 ar
    12     7     8 ar
    13     8     9 ar
    14     9    10 ar
    15     9    17 1
    16    10    11 ar
    17    12    13 2
    18    12    14 1
    19    14    15 1
    20    15    16 1
    21    17    18 3
    22    19    20 1
    23    19    23 1
    24    20    21 1
    25    21    22 1
    26    22    23 2
    27    24    25 ar
    28    24    29 ar
    29    25    26 ar
    30    26    27 ar
    31    27    28 ar
    32    28    29 ar
    33    28    30 1
    34    30    31 1
    35    30    32 1
    36    30    33 1
    37     2    34 1
    38     5    35 1
    39     5    36 1
    40     5    37 1
    41     7    38 1
    42     8    39 1
    43    10    40 1
    44    11    41 1
    45    15    42 1
    46    15    43 1
    47    16    44 1
    48    16    45 1
    49    16    46 1
    50    21    47 1
    51    22    48 1
    52    23    49 1
    53    25    50 1
    54    26    51 1
    55    27    52 1
    56    29    53 1
@<TRIPOS>SUBSTRUCTURE
     1 IUY         1 TEMP              0 ****  ****    0 ROOT
