@<TRIPOS>MOLECULE
IUY
   53    56     1     0     0
SMALL
bcc


@<TRIPOS>ATOM
      1 C1           0.0000     0.0000     0.0000 ce         1 IUY      -0.305400
      2 C2           1.5030     0.0000     0.0000 c3         1 IUY       0.071500
      3 C3          -0.7270     0.2510     1.1010 c2         1 IUY      -0.058300
      4 N4          -0.1300     0.5150     2.3100 nh         1 IUY       0.393300
      5 C5          -2.2320     0.2450     1.0090 c3         1 IUY       0.031100
      6 C6           2.0050     1.2300    -0.7120 ca         1 IUY      -0.157300
      7 C7           2.8000     1.0980    -1.8360 ca         1 IUY      -0.072000
      8 C8           3.2630     2.2200    -2.4940 ca         1 IUY      -0.064500
      9 C9           2.9260     3.4900    -2.0220 ca         1 IUY       0.084000
     10 C10          2.1230     3.6150    -0.8870 ca         1 IUY      -0.064500
     11 C11          1.6630     2.4850    -0.2420 ca         1 IUY      -0.072000
     12 C12         -0.6770    -0.2700    -1.2110 c          1 IUY       0.731300
     13 O13         -1.8900    -0.3610    -1.2230 o          1 IUY      -0.574000
     14 O14          0.0240    -0.4280    -2.3540 os         1 IUY      -0.413900
     15 C15         -0.7260    -0.6990    -3.5410 c3         1 IUY       0.222400
     16 C16          0.2330    -0.8460    -4.7250 c3         1 IUY      -0.002100
     17 C17          3.4020     4.6580    -2.6990 cg         1 IUY       0.188800
     18 N18          3.7820     5.5750    -3.2520 n1         1 IUY      -0.311800
     19 N19          1.9980     0.0000     1.3800 na         1 IUY       0.524900
     20 C20          1.2300     0.2430     2.4250 cz         1 IUY      -0.383600
     21 N21          1.9850     0.1750     3.5440 na         1 IUY       0.425900
     22 C22          3.2680    -0.1290     3.1450 cc         1 IUY      -0.260300
     23 C23          3.2480    -0.2320     1.8010 cd         1 IUY      -0.263300
     24 C24         -0.8600     1.0360     3.3830 ca         1 IUY      -0.234200
     25 C25         -1.0890     0.2590     4.5110 ca         1 IUY      -0.076000
     26 C26         -1.8100     0.7770     5.5700 ca         1 IUY      -0.078000
     27 C27         -2.3050     2.0660     5.5060 ca         1 IUY       0.003000
     28 C28         -2.0790     2.8420     4.3840 ca         1 IUY      -0.187300
     29 C29         -1.3530     2.3320     3.3250 ca         1 IUY      -0.011000
     30 C30         -2.6200     4.2470     4.3180 c3         1 IUY       0.643200
     31 F31         -3.3090     4.5360     5.5010 f          1 IUY      -0.196300
     32 F32         -1.5610     5.1480     4.1630 f          1 IUY      -0.196300
     33 F33         -3.4920     4.3610     3.2310 f          1 IUY      -0.196300
     34 H2           1.8610    -0.8870    -0.5080 h1         1 IUY       0.078700
     35 H5          -2.5520     0.9790     0.2800 hc         1 IUY       0.052700
     36 H5A         -2.5710    -0.7380     0.7040 hc         1 IUY       0.052700
     37 H5B         -2.6540     0.4880     1.9760 hc         1 IUY       0.052700
     38 H7           3.0610     0.1120    -2.2030 ha         1 IUY       0.108000
     39 H8           3.8850     2.1140    -3.3740 ha         1 IUY       0.128500
     40 H10          1.8580     4.5980    -0.5160 ha         1 IUY       0.128500
     41 H11          1.0360     2.5830     0.6360 ha         1 IUY       0.108000
     42 H15         -1.3050    -1.6040    -3.4030 h1         1 IUY       0.016200
     43 H15A        -1.3930     0.1300    -3.7440 h1         1 IUY       0.016200
     44 H16          0.9730    -1.6050    -4.5000 hc         1 IUY       0.015033
     45 H16A         0.7290     0.0990    -4.9080 hc         1 IUY       0.015033
     46 H16B        -0.3250    -1.1370    -5.6070 hc         1 IUY       0.015033
     47 HN21         1.6620     0.3170     4.4810 hn         1 IUY       0.167700
     48 H22          4.1230    -0.2560     3.7970 h4         1 IUY       0.193000
     49 H23          4.1060    -0.4600     1.1810 h4         1 IUY       0.194000
     50 H25         -0.7010    -0.7520     4.5610 ha         1 IUY       0.113000
     51 H26         -1.9890     0.1720     6.4510 ha         1 IUY       0.132000
     52 H27         -2.8710     2.4710     6.3360 ha         1 IUY       0.142000
     53 H29         -1.1720     2.9420     2.4470 ha         1 IUY       0.130000
@<TRIPOS>BOND
     1     1     2 1   
     2     1     3 2   
     3     1    12 1   
     4     2     6 1   
     5     2    19 1   
     6     2    34 1   
     7     3     4 1   
     8     3     5 1   
     9     4    20 2   
    10     4    24 1   
    11     5    35 1   
    12     5    36 1   
    13     5    37 1   
    14     6     7 ar  
    15     6    11 ar  
    16     7     8 ar  
    17     7    38 1   
    18     8     9 ar  
    19     8    39 1   
    20     9    10 ar  
    21     9    17 1   
    22    10    11 ar  
    23    10    40 1   
    24    11    41 1   
    25    12    13 2   
    26    12    14 1   
    27    14    15 1   
    28    15    16 1   
    29    15    42 1   
    30    15    43 1   
    31    16    44 1   
    32    16    45 1   
    33    16    46 1   
    34    17    18 3   
    35    19    20 1   
    36    19    23 1   
    37    20    21 1   
    38    21    22 1   
    39    21    47 1   
    40    22    23 2   
    41    22    48 1   
    42    23    49 1   
    43    24    25 ar  
    44    24    29 ar  
    45    25    26 ar  
    46    25    50 1   
    47    26    27 ar  
    48    26    51 1   
    49    27    28 ar  
    50    27    52 1   
    51    28    29 ar  
    52    28    30 1   
    53    29    53 1   
    54    30    31 1   
    55    30    32 1   
    56    30    33 1   
@<TRIPOS>SUBSTRUCTURE
     1 IUY         1 TEMP              0 ****  ****    0 ROOT
