@<TRIPOS>MOLECULE
IV2
   19    20     1     0     0
SMALL
bcc


@<TRIPOS>ATOM
      1 C1           0.0000     0.0000     0.0000 ca         1 IV2      -0.028300
      2 C2          -0.7490     0.0000    -1.3080 c3         1 IV2       0.047200
      3 C3           1.3740     0.0000     0.0000 ca         1 IV2      -0.040600
      4 C4           2.0800     0.0000     1.1950 ca         1 IV2      -0.088000
      5 C5           1.4030     0.0010     2.3930 ca         1 IV2      -0.046000
      6 C6           0.0110     0.0010     2.4130 ca         1 IV2      -0.006100
      7 C7          -2.4790     0.0170     2.6260 cc         1 IV2       0.485100
      8 C8          -0.7140     0.0070     1.2170 ca         1 IV2       0.089400
      9 N1          -2.0480     0.0130     1.4120 nd         1 IV2      -0.475100
     10 N3          -3.8100     0.0240     2.9890 nv         1 IV2      -0.499800
     11 S           -1.1310     0.0010     3.7540 ss         1 IV2      -0.269100
     12 Cl           2.2340    -0.0020    -1.5090 cl         1 IV2      -0.016400
     13 H21C        -0.1320    -0.4500    -2.0770 hc         1 IV2       0.020367
     14 H22C        -1.6640    -0.5690    -1.2000 hc         1 IV2       0.020367
     15 H23C        -0.9880     1.0190    -1.5870 hc         1 IV2       0.020367
     16 H4           3.1630    -0.0000     1.1840 ha         1 IV2       0.118000
     17 H5           1.9550     0.0010     3.3250 ha         1 IV2       0.114000
     18 H31N        -4.3860     0.8110     2.7640 hn         1 IV2       0.277300
     19 H32N        -4.1930    -0.7460     3.5010 hn         1 IV2       0.277300
@<TRIPOS>BOND
     1     1     2 1   
     2     1     3 ar  
     3     1     8 ar  
     4     2    13 1   
     5     2    14 1   
     6     2    15 1   
     7     3     4 ar  
     8     3    12 1   
     9     4     5 ar  
    10     4    16 1   
    11     5     6 ar  
    12     5    17 1   
    13     6     8 ar  
    14     6    11 1   
    15     7     9 2   
    16     7    10 1   
    17     7    11 1   
    18     8     9 1   
    19    10    18 1   
    20    10    19 1   
@<TRIPOS>SUBSTRUCTURE
     1 IV2         1 TEMP              0 ****  ****    0 ROOT
