@<TRIPOS>MOLECULE
IV7
   52    53     1     0     0
SMALL
bcc


@<TRIPOS>ATOM
      1 C12        -0.8520   -0.1610    0.3870 c3        1 IV7     -0.175000
      2 C13        -0.7710    1.1530   -0.2200 c1        1 IV7      0.039000
      3 C6         -2.8830    2.0220    4.5560 c2        1 IV7     -0.044000
      4 C15        -0.4600    2.0700    2.0470 c2        1 IV7     -0.122000
      5 C4         -4.6240    0.5720    5.6250 c1        1 IV7     -0.094000
      6 C5         -4.3460    1.8040    4.7910 c3        1 IV7     -0.079000
      7 C23        -5.0970    1.8150    3.5300 c2        1 IV7     -0.348000
      8 C11        -1.2980   -0.1750    1.8220 c2        1 IV7     -0.416000
      9 C10        -0.7590    0.8570    2.6070 c2        1 IV7     -0.041000
     10 C1         -1.9780    1.3350    5.2960 c2        1 IV7     -0.152000
     11 C14        -0.9730    2.3460    0.6620 c3        1 IV7      0.027000
     12 C22        -5.1750    0.7940    2.5300 c2        1 IV7      0.126000
     13 C24        -6.0690    2.8110    3.1720 c2        1 IV7      0.109000
     14 C2         -2.4370    0.5090    6.4530 c2        1 IV7      0.230000
     15 C17        -2.2310   -1.2010    2.1350 c2        1 IV7      0.328000
     16 C29        -4.4890   -0.3590    2.2720 c2        1 IV7     -0.340000
     17 C9         -0.1530    0.6410    3.9750 c2        1 IV7      0.066000
     18 C28        -6.3490    4.0400    3.9430 c3        1 IV7     -0.188000
     19 C18         0.9250   -0.0680    4.0160 c1        1 IV7      0.018000
     20 N3         -3.7440    0.0420    6.4260 n2        1 IV7     -0.274000
     21 N25        -6.7330    2.4830    2.0220 n2        1 IV7     -0.204000
     22 N26        -6.2510    1.2660    1.6070 na        1 IV7      0.073000
     23 N20        -3.3920   -0.8450    3.0870 n4        1 IV7      0.019000
     24 N8         -1.5800    0.2030    7.4390 n3        1 IV7     -0.273000
     25 O19        -2.3100   -2.3320    1.6500 o         1 IV7     -0.264000
     26 O7         -0.6050    1.3830    5.0630 os        1 IV7     -0.133000
     27 F16        -0.4350    3.5120    0.1480 f         1 IV7     -0.117000
     28 H12        -1.5290   -0.8100   -0.2480 hc        1 IV7      0.170500
     29 H13         0.1790   -0.6210    0.2760 hc        1 IV7      0.170500
     30 H6         -2.5750    2.6700    3.7200 ha        1 IV7      0.165000
     31 H15        -2.1090    2.4700    0.6970 h1        1 IV7      0.153000
     32 H4         -4.7240    2.6680    5.4330 hc        1 IV7      0.176000
     33 H9          0.1730    2.8320    2.5240 ha        1 IV7      0.177000
     34 H291       -4.7180   -1.0470    1.4410 hx        1 IV7      0.183000
     35 H292       -3.0750   -0.1050    3.7170 hn        1 IV7      0.226000
     36 H281       -5.3900    4.5740    4.1600 hc        1 IV7      0.118000
     37 H282       -6.8330    3.7560    4.9140 hc        1 IV7      0.118000
     38 H283       -7.0330    4.7370    3.3970 hc        1 IV7      0.118000
     39 H81N       -0.6390    0.5260    7.4060 hn        1 IV7      0.264000
     40 H82N       -1.8850   -0.3100    8.2400 hn        1 IV7      0.264000
     41 H181        1.4220    0.5930    6.1950 ha        1 IV7      0.008750
     42 H182        1.2820   -0.0740    6.2310 ha        1 IV7      0.008750
     43 H183        1.7880   -0.6700    3.8230 ha        1 IV7      0.270000
     44 H271       -6.2620   -0.3660    0.2880 h4        1 IV7      0.190000
     45 H272       -3.3290   -2.4130   -0.6210 ha        1 IV7      0.008750
     46 H273       -7.4930    1.0450   -0.0700 h4        1 IV7      0.190000
     47 H211       -4.6980   -1.7190    4.5390 hx        1 IV7      0.143000
     48 H212       -3.6850   -1.8770   -0.4070 ha        1 IV7      0.008750
     49 H213       -4.1300   -2.8480    3.1980 hx        1 IV7      0.143000
     50 C27        -6.6870    0.6160    0.5600 c2        1 IV7     -0.004000
     51 C21        -3.8270   -2.0190    3.8900 c3        1 IV7     -0.186000
     52 H201       -2.9680   -2.3570    4.5250 hx        1 IV7      0.143000
@<TRIPOS>BOND
     1    1    2 1   
     2    1    8 1   
     3    1   28 1   
     4    1   29 1   
     5    2   11 1   
     6    3    6 1   
     7    3   10 1   
     8    3   30 1   
     9    4    9 1   
    10    4   11 1   
    11    4   33 1   
    12    5    6 1   
    13    5   20 1   
    14    6    7 1   
    15    6   32 1   
    16    7   12 1   
    17    7   13 1   
    18    8    9 1   
    19    8   15 1   
    20    9   17 1   
    21   10   14 1   
    22   10   26 1   
    23   11   27 1   
    24   11   31 1   
    25   12   16 1   
    26   12   22 1   
    27   13   18 1   
    28   13   21 1   
    29   14   20 1   
    30   14   24 1   
    31   15   23 1   
    32   15   25 1   
    33   16   23 1   
    34   16   34 1   
    35   17   19 1   
    36   17   26 1   
    37   18   36 1   
    38   18   37 1   
    39   18   38 1   
    40   19   43 1   
    41   21   22 1   
    42   22   50 1   
    43   23   35 1   
    44   23   51 1   
    45   24   39 1   
    46   24   40 1   
    47   41   42 1   
    48   44   50 1   
    49   45   48 1   
    50   46   50 1   
    51   47   51 1   
    52   49   51 1   
    53   51   52 1   
@<TRIPOS>SUBSTRUCTURE
     1 IV7         1 TEMP              0 ****  ****    0 ROOT
