@<TRIPOS>MOLECULE
IVA
   16    15     1     0     0
SMALL
bcc


@<TRIPOS>ATOM
      1 CA          0.0430    0.1190   -0.0480 c3        1 IVA     -0.189400
      2 CB          1.5420   -0.0590    0.1050 c3        1 IVA     -0.061700
      3 CG1         1.9150   -0.2250    1.5630 c3        1 IVA     -0.080100
      4 CG2         2.0370   -1.2390   -0.7050 c3        1 IVA     -0.080100
      5 C          -0.4190    1.5060    0.4310 c         1 IVA      0.906600
      6 O           0.2030    2.5280    0.0170 o         1 IVA     -0.853800
      7 OXT        -1.4180    1.5600    1.2060 o         1 IVA     -0.853800
      8 HA1        -0.2370    0.0230   -1.1280 hc        1 IVA      0.020200
      9 HA2        -0.5020   -0.6730    0.5230 hc        1 IVA      0.020200
     10 HB          2.0300    0.8820   -0.2820 hc        1 IVA      0.071700
     11 HG11        1.5000    0.6310    2.1490 hc        1 IVA      0.017033
     12 HG12        1.4960   -1.1750    1.9740 hc        1 IVA      0.017033
     13 HG13        3.0250   -0.2470    1.6850 hc        1 IVA      0.017033
     14 HG21        1.5310   -2.1800   -0.3780 hc        1 IVA      0.017033
     15 HG22        3.1390   -1.3710   -0.5770 hc        1 IVA      0.017033
     16 HG23        1.8230   -1.0840   -1.7900 hc        1 IVA      0.017033
@<TRIPOS>BOND
     1    1    2 1   
     2    1    5 1   
     3    1    8 1   
     4    1    9 1   
     5    2    3 1   
     6    2    4 1   
     7    2   10 1   
     8    3   11 1   
     9    3   12 1   
    10    3   13 1   
    11    4   14 1   
    12    4   15 1   
    13    4   16 1   
    14    5    6 1   
    15    5    7 1   
@<TRIPOS>SUBSTRUCTURE
     1 IVA         1 TEMP              0 ****  ****    0 ROOT
