@<TRIPOS>MOLECULE
molecule
   16    15     1     0     0
SMALL
bcc


@<TRIPOS>ATOM
      1 CA           0.0000     0.0000     0.0000 c3         1 IVA      -0.178400
      2 CB           1.5300     0.0000     0.0000 c3         1 IVA      -0.057700
      3 CG1          2.0410     0.0000     1.4420 c3         1 IVA      -0.083100
      4 CG2          2.0400    -1.2490    -0.7210 c3         1 IVA      -0.083100
      5 C           -0.5020     1.2880     0.6010 c          1 IVA       0.891600
      6 O            0.2830     2.1200     0.9890 o          1 IVA      -0.858800
      7 OXT         -1.8220     1.5090     0.7050 o          1 IVA      -0.858800
      8 HA1         -0.3610    -0.0880    -1.0180 hc         1 IVA       0.027700
      9 HA2         -0.3610    -0.8370     0.5850 hc         1 IVA       0.027700
     10 HB           1.8920     0.8840    -0.5110 hc         1 IVA       0.054700
     11 HG11         2.1850     1.0210     1.7740 hc         1 IVA       0.019700
     12 HG12         1.3160    -0.4890     2.0820 hc         1 IVA       0.019700
     13 HG13         2.9830    -0.5320     1.4920 hc         1 IVA       0.019700
     14 HG21         1.7190    -2.1330    -0.1840 hc         1 IVA       0.019700
     15 HG22         3.1230    -1.2250    -0.7630 hc         1 IVA       0.019700
     16 HG23         1.6410    -1.2730    -1.7280 hc         1 IVA       0.019700
@<TRIPOS>BOND
     1     1     2 1
     2     1     5 1
     3     1     8 1
     4     1     9 1
     5     2     3 1
     6     2     4 1
     7     2    10 1
     8     3    11 1
     9     3    12 1
    10     3    13 1
    11     4    14 1
    12     4    15 1
    13     4    16 1
    14     5     6 1
    15     5     7 1
@<TRIPOS>SUBSTRUCTURE
     1 IVA         1 TEMP              0 ****  ****    0 ROOT
