@<TRIPOS>MOLECULE
molecule
   45    47     1     0     0
SMALL
bcc


@<TRIPOS>ATOM
      1 S            0.0000     0.0000     0.0000 ss         1 IVH      -0.251400
      2 C1           4.3500     0.0070    -2.8880 c3         1 IVH      -0.092100
      3 N1           0.7260     0.0010     2.5690 nb         1 IVH      -0.853000
      4 O1          -5.2610     0.5420     4.6790 os         1 IVH      -0.401600
      5 C2           3.8500     0.0010    -1.4420 c3         1 IVH      -0.079400
      6 N2          -1.5590     0.0000     2.1630 nb         1 IVH      -0.765000
      7 O2          -7.6460     1.0820     6.2520 oh         1 IVH      -0.592800
      8 N3          -2.9790     0.0010     4.2140 na         1 IVH      -0.252000
      9 O3          -6.9670    -1.1870     2.2820 oh         1 IVH      -0.567800
     10 C4           1.8090     0.0000     0.0000 c3         1 IVH      -0.009300
     11 N4          -1.3130    -0.0000     5.6250 nc         1 IVH      -0.588100
     12 O4          -4.4800    -1.9440     2.2080 oh         1 IVH      -0.553800
     13 C5          -0.3070     0.0000     1.7350 ca         1 IVH       0.850300
     14 C6           0.5470     0.0000     3.8850 ca         1 IVH       0.798200
     15 C7          -0.7670     0.0000     4.3840 ca         1 IVH      -0.222200
     16 C8          -1.8290    -0.0000     3.4650 ca         1 IVH       0.493800
     17 C9          -2.6100     0.0010     5.5280 cd         1 IVH       0.425700
     18 C10         -4.3500     0.0020     3.6980 c3         1 IVH       0.261800
     19 C11         -4.8580    -1.4480     3.4940 c3         1 IVH       0.094100
     20 C12         -6.3920    -1.2710     3.5880 c3         1 IVH       0.086100
     21 C13         -6.5740     0.0610     4.3430 c3         1 IVH       0.126100
     22 C14         -7.3840    -0.1720     5.6190 c3         1 IVH       0.141400
     23 H1           3.9630    -0.8610    -3.4080 hc         1 IVH       0.034367
     24 H1A          5.4330    -0.0210    -2.8960 hc         1 IVH       0.034367
     25 H1B          4.0090     0.9070    -3.3850 hc         1 IVH       0.034367
     26 H2           4.2110     0.8860    -0.9310 hc         1 IVH       0.042700
     27 H2A          4.2110    -0.8830    -0.9310 hc         1 IVH       0.042700
     28 HO2         -8.2980     0.9660     6.9230 ho         1 IVH       0.405000
     29 H3           1.9590     0.8860    -1.9520 hc         1 IVH       0.051200
     30 H3A          1.9590    -0.8830    -1.9540 hc         1 IVH       0.051200
     31 HO3         -7.6700    -1.8120     2.2070 ho         1 IVH       0.404000
     32 H4           2.1710    -0.8850     0.5100 h1         1 IVH       0.074700
     33 H4A          2.1710     0.8840     0.5110 h1         1 IVH       0.074700
     34 HO4         -4.3220    -2.8720     2.2630 ho         1 IVH       0.405000
     35 HN5          1.4840     0.0000     5.7350 hn         1 IVH       0.449800
     36 HN5A         2.5610     0.0010     4.3770 hn         1 IVH       0.449800
     37 H9          -3.2960     0.0020     6.3660 h5         1 IVH       0.087800
     38 H10         -4.4150     0.5600     2.7720 h2         1 IVH       0.118700
     39 H11         -4.4980    -2.0950     4.2850 h1         1 IVH       0.057700
     40 H12         -6.8320    -2.0860     4.1510 h1         1 IVH       0.044700
     41 H13         -7.0760     0.7780     3.7060 h1         1 IVH       0.090700
     42 H14         -8.3220    -0.6530     5.3690 h1         1 IVH       0.028700
     43 H14A        -6.8210    -0.8060     6.2940 h1         1 IVH       0.028700
     44 N5           1.6300     0.0010     4.7450 nv         1 IVH      -0.984500
     45 C3           2.3200     0.0010    -1.4420 c3         1 IVH      -0.074400
@<TRIPOS>BOND
     1     1    10 1
     2     1    13 1
     3     2     5 1
     4     2    23 1
     5     2    24 1
     6     2    25 1
     7     3    13 ar
     8     3    14 ar
     9    18     4 1
    10    21     4 1
    11     5    45 1
    12     5    26 1
    13     5    27 1
    14    13     6 ar
    15     6    16 ar
    16    22     7 1
    17     7    28 1
    18    45    10 1
    19    45    29 1
    20    45    30 1
    21    16     8 1
    22     8    17 1
    23     8    18 1
    24    20     9 1
    25     9    31 1
    26    10    32 1
    27    10    33 1
    28    15    11 1
    29    11    17 2
    30    19    12 1
    31    12    34 1
    32    44    14 1
    33    44    35 1
    34    44    36 1
    35    14    15 ar
    36    15    16 ar
    37    17    37 1
    38    19    18 1
    39    18    38 1
    40    20    19 1
    41    19    39 1
    42    20    21 1
    43    20    40 1
    44    22    21 1
    45    21    41 1
    46    22    42 1
    47    22    43 1
@<TRIPOS>SUBSTRUCTURE
     1 IVH         1 TEMP              0 ****  ****    0 ROOT
