@<TRIPOS>MOLECULE
IVH
   45    47     1     0     0
SMALL
bcc


@<TRIPOS>ATOM
      1 S            0.0000     0.0000     0.0000 ss         1 IVH      -0.392400
      2 C1           4.3500     0.0070    -2.8880 c3         1 IVH       0.006900
      3 N1           0.7260     0.0010     2.5690 nb         1 IVH      -0.761000
      4 O1          -5.2610     0.5420     4.6790 os         1 IVH      -0.385600
      5 C2           3.8500     0.0010    -1.4420 c3         1 IVH      -0.026400
      6 N2          -1.5590     0.0000     2.1630 nb         1 IVH      -0.628000
      7 O2          -7.6460     1.0820     6.2520 oh         1 IVH      -0.577800
      8 N3          -2.9790     0.0010     4.2140 na         1 IVH       0.209000
      9 O3          -6.9670    -1.1870     2.2820 oh         1 IVH      -0.546800
     10 C4           1.8090     0.0000     0.0000 c3         1 IVH       0.081700
     11 N4          -1.3130    -0.0000     5.6250 nc         1 IVH      -0.497100
     12 O4          -4.4800    -1.9440     2.2080 oh         1 IVH      -0.533800
     13 C5          -0.3070     0.0000     1.7350 ca         1 IVH       0.801300
     14 C6           0.5470     0.0000     3.8850 ca         1 IVH       0.603200
     15 C7          -0.7670     0.0000     4.3840 ca         1 IVH      -0.250200
     16 C8          -1.8290    -0.0000     3.4650 ca         1 IVH       0.282800
     17 C9          -2.6100     0.0010     5.5280 cd         1 IVH       0.249700
     18 C10         -4.3500     0.0020     3.6980 c3         1 IVH       0.150800
     19 C11         -4.8580    -1.4480     3.4940 c3         1 IVH       0.128100
     20 C12         -6.3920    -1.2710     3.5880 c3         1 IVH       0.128100
     21 C13         -6.5740     0.0610     4.3430 c3         1 IVH       0.152100
     22 C14         -7.3840    -0.1720     5.6190 c3         1 IVH       0.219400
     23 H1           3.9630    -0.8610    -3.4080 hc         1 IVH       0.001367
     24 H1A          5.4330    -0.0210    -2.8960 hc         1 IVH       0.001367
     25 H1B          4.0090     0.9070    -3.3850 hc         1 IVH       0.001367
     26 H2           4.2110     0.8860    -0.9310 hc         1 IVH       0.013200
     27 H2A          4.2110    -0.8830    -0.9310 hc         1 IVH       0.013200
     28 HO2         -8.2980     0.9660     6.9230 ho         1 IVH       0.391000
     29 H3           1.9590     0.8860    -1.9520 hc         1 IVH       0.025700
     30 H3A          1.9590    -0.8830    -1.9540 hc         1 IVH       0.025700
     31 HO3         -7.6700    -1.8120     2.2070 ho         1 IVH       0.389000
     32 H4           2.1710    -0.8850     0.5100 h1         1 IVH       0.047200
     33 H4A          2.1710     0.8840     0.5110 h1         1 IVH       0.047200
     34 HO4         -4.3220    -2.8720     2.2630 ho         1 IVH       0.389000
     35 HN5          1.4840     0.0000     5.7350 hn         1 IVH       0.276300
     36 HN5A         2.5610     0.0010     4.3770 hn         1 IVH       0.276300
     37 H9          -3.2960     0.0020     6.3660 h5         1 IVH       0.040800
     38 H10         -4.4150     0.5600     2.7720 h2         1 IVH       0.076700
     39 H11         -4.4980    -2.0950     4.2850 h1         1 IVH       0.020700
     40 H12         -6.8320    -2.0860     4.1510 h1         1 IVH       0.010700
     41 H13         -7.0760     0.7780     3.7060 h1         1 IVH       0.053700
     42 H14         -8.3220    -0.6530     5.3690 h1         1 IVH      -0.008800
     43 H14A        -6.8210    -0.8060     6.2940 h1         1 IVH      -0.008800
     44 N5           1.6300     0.0010     4.7450 nv         1 IVH      -0.481500
     45 C3           2.3200     0.0010    -1.4420 c3         1 IVH      -0.015400
@<TRIPOS>BOND
     1     1    10 1   
     2     1    13 1   
     3     2     5 1   
     4     2    23 1   
     5     2    24 1   
     6     2    25 1   
     7     3    13 ar  
     8     3    14 ar  
     9     4    18 1   
    10     4    21 1   
    11     5    26 1   
    12     5    27 1   
    13     5    45 1   
    14     6    13 ar  
    15     6    16 ar  
    16     7    22 1   
    17     7    28 1   
    18     8    16 1   
    19     8    17 1   
    20     8    18 1   
    21     9    20 1   
    22     9    31 1   
    23    10    32 1   
    24    10    33 1   
    25    10    45 1   
    26    11    15 1   
    27    11    17 2   
    28    12    19 1   
    29    12    34 1   
    30    14    15 ar  
    31    14    44 1   
    32    15    16 ar  
    33    17    37 1   
    34    18    19 1   
    35    18    38 1   
    36    19    20 1   
    37    19    39 1   
    38    20    21 1   
    39    20    40 1   
    40    21    22 1   
    41    21    41 1   
    42    22    42 1   
    43    22    43 1   
    44    29    45 1   
    45    30    45 1   
    46    35    44 1   
    47    36    44 1   
@<TRIPOS>SUBSTRUCTURE
     1 IVH         1 TEMP              0 ****  ****    0 ROOT
