@<TRIPOS>MOLECULE
IVK
   58    61     1     0     0
SMALL
bcc


@<TRIPOS>ATOM
      1 C1           0.0000     0.0000     0.0000 c3         1 IVK      -0.129700
      2 C2           1.5420     0.0000     0.0000 c3         1 IVK      -0.133700
      3 C3           1.9440     0.0000     1.4910 c3         1 IVK       0.163800
      4 N4           0.7710    -0.5810     2.1940 n3         1 IVK      -0.517600
      5 C5          -0.4010     0.0000     1.4910 c3         1 IVK       0.134800
      6 C6          -0.5250    -1.2380    -0.6820 c          1 IVK       0.577100
      7 C7           2.0650     1.2370    -0.6840 c          1 IVK       0.573100
      8 N8           3.3940     1.4360    -0.7930 ns         1 IVK      -0.012100
      9 O9           1.2910     2.0540    -1.1350 o          1 IVK      -0.631100
     10 O10          0.2500    -2.0550    -1.1330 o          1 IVK      -0.632100
     11 N11         -1.8530    -1.4360    -0.7910 ns         1 IVK      -0.020100
     12 C12         -2.3400    -2.5310    -1.5140 ca         1 IVK      -0.094400
     13 C14         -3.3030    -4.6950    -2.9450 ca         1 IVK      -0.045600
     14 C15         -2.1420    -4.8190    -2.2020 ca         1 IVK      -0.080000
     15 C16         -3.9870    -3.4920    -2.9680 ca         1 IVK      -0.080000
     16 C17         -1.6590    -3.7410    -1.4880 ca         1 IVK      -0.107500
     17 Cl1         -3.9080    -6.0520    -3.8410 cl         1 IVK      -0.028400
     18 C19          3.8810     2.6350    -1.3280 ca         1 IVK      -0.094400
     19 C20          3.0840     3.7720    -1.3230 ca         1 IVK      -0.108000
     20 C21          4.8450     5.0080    -2.3840 ca         1 IVK      -0.129400
     21 C22          5.6460     3.8730    -2.3850 ca         1 IVK      -0.081000
     22 C23          3.5630     4.9540    -1.8500 ca         1 IVK      -0.051000
     23 C24          5.1660     2.6890    -1.8590 ca         1 IVK       0.067900
     24 N25          5.3300     6.2080    -2.9170 n          1 IVK       0.243800
     25 C26          6.0510     7.0510    -2.1310 cc         1 IVK      -0.143400
     26 C27          6.2860     8.5650    -3.9600 cd         1 IVK      -0.023000
     27 C28          5.5680     7.7150    -4.7510 cc         1 IVK      -0.234200
     28 C29          6.5310     8.2170    -2.6240 cd         1 IVK      -0.208000
     29 C30          5.0840     6.5130    -4.2060 c          1 IVK       0.573700
     30 O31          4.4400     5.7430    -4.9020 o          1 IVK      -0.688500
     31 F32          5.9440     1.5850    -1.8580 f          1 IVK      -0.123900
     32 C33          0.7730    -0.2070     3.6140 c3         1 IVK       0.090800
     33 C34         -0.2950    -1.0160     4.3550 c3         1 IVK       0.574900
     34 F35         -0.0140    -2.3810     4.2320 f          1 IVK      -0.205300
     35 F36         -0.2940    -0.6610     5.7080 f          1 IVK      -0.205300
     36 F30         -1.5510    -0.7470     3.8030 f          1 IVK      -0.205300
     37 C35         -3.5080    -2.4100    -2.2550 ca         1 IVK      -0.107500
     38 H1          -0.3740     0.8920    -0.4880 hc         1 IVK       0.087700
     39 H2           1.9150    -0.8920    -0.4880 hc         1 IVK       0.099700
     40 H51C        -1.2770    -0.6180     1.6450 h1         1 IVK       0.032200
     41 H52C        -0.5810     1.0130     1.8320 h1         1 IVK       0.032200
     42 H31C         2.8200    -0.6190     1.6440 h1         1 IVK       0.019200
     43 H32C         2.1250     1.0120     1.8320 h1         1 IVK       0.019200
     44 H331         1.7460    -0.4170     4.0420 h1         1 IVK       0.045700
     45 H332         0.5560     0.8500     3.7100 h1         1 IVK       0.045700
     46 H11         -2.4890    -0.7400    -0.4550 hn         1 IVK       0.168500
     47 H8           4.0320     0.7170    -0.5140 hn         1 IVK       0.181500
     48 H17         -0.7500    -3.8390    -0.9060 ha         1 IVK       0.128500
     49 H35         -4.0430    -1.4680    -2.2730 ha         1 IVK       0.128500
     50 H15         -1.6090    -5.7620    -2.1830 ha         1 IVK       0.115500
     51 H16         -4.8970    -3.3970    -3.5480 ha         1 IVK       0.115500
     52 H20          2.0850     3.7310    -0.9070 ha         1 IVK       0.167000
     53 H23          2.9400     5.8400    -1.8470 ha         1 IVK       0.117000
     54 H22          6.6460     3.9160    -2.7990 ha         1 IVK       0.128000
     55 H26          6.2430     6.7870    -1.0980 h4         1 IVK       0.128000
     56 H29          7.1010     8.8810    -1.9870 ha         1 IVK       0.121000
     57 H27          6.6660     9.4960    -4.3620 ha         1 IVK       0.106000
     58 H28          5.3700     7.9650    -5.7860 ha         1 IVK       0.137000
@<TRIPOS>BOND
     1     1     2 1   
     2     1     5 1   
     3     1     6 1   
     4     1    38 1   
     5     2     3 1   
     6     2     7 1   
     7     2    39 1   
     8     3     4 1   
     9     3    42 1   
    10     3    43 1   
    11     4     5 1   
    12     4    32 1   
    13     5    40 1   
    14     5    41 1   
    15     6    10 2   
    16     6    11 1   
    17     7     8 1   
    18     7     9 2   
    19     8    18 1   
    20     8    47 1   
    21    11    12 1   
    22    11    46 1   
    23    12    16 ar  
    24    12    37 ar  
    25    13    14 ar  
    26    13    15 ar  
    27    13    17 1   
    28    14    16 ar  
    29    14    50 1   
    30    15    37 ar  
    31    15    51 1   
    32    16    48 1   
    33    18    19 ar  
    34    18    23 ar  
    35    19    22 ar  
    36    19    52 1   
    37    20    21 ar  
    38    20    22 ar  
    39    20    24 1   
    40    21    23 ar  
    41    21    54 1   
    42    22    53 1   
    43    23    31 1   
    44    24    25 1   
    45    24    29 1   
    46    25    28 2   
    47    25    55 1   
    48    26    27 2   
    49    26    28 1   
    50    26    57 1   
    51    27    29 1   
    52    27    58 1   
    53    28    56 1   
    54    29    30 2   
    55    32    33 1   
    56    32    44 1   
    57    32    45 1   
    58    33    34 1   
    59    33    35 1   
    60    33    36 1   
    61    37    49 1   
@<TRIPOS>SUBSTRUCTURE
     1 IVK         1 TEMP              0 ****  ****    0 ROOT
