@<TRIPOS>MOLECULE
IVL
   29    29     1     0     0
SMALL
bcc


@<TRIPOS>ATOM
      1 CAF          0.0000     0.0000     0.0000 c3         1 IVL      -0.009200
      2 CAE          1.5430     0.0000     0.0000 c3         1 IVL      -0.027400
      3 CAD          1.8920     0.0000     1.5120 c3         1 IVL      -0.027400
      4 CAA          0.7620     0.8840     2.0940 c3         1 IVL      -0.009200
      5 CAH         -1.2210    -0.4850     2.0160 c3         1 IVL       0.015100
      6 CAJ         -1.2610     1.7320     1.0960 c3         1 IVL      -0.028200
      7 CAK         -1.7120     2.2820     2.4500 c3         1 IVL      -0.037400
      8 CAL         -2.5690     3.5300     2.2330 c3         1 IVL      -0.130400
      9 CAM         -3.0140     4.0720     3.5680 c          1 IVL       0.975600
     10 N3          -0.4380     0.5330     1.3030 n4         1 IVL       0.043200
     11 OAB         -2.6790     3.5160     4.5880 o          1 IVL      -0.875300
     12 OAC         -3.7820     5.1710     3.6230 o          1 IVL      -0.875300
     13 HAA1         0.6030     0.6500     3.1400 hx         1 IVL       0.081950
     14 HAA2         1.0020     1.9320     1.9680 hx         1 IVL       0.081950
     15 HAD1         2.8620     0.4520     1.6830 hc         1 IVL       0.048700
     16 HAD2         1.8460    -1.0030     1.9180 hc         1 IVL       0.048700
     17 HAE1         1.9240    -0.8930    -0.4790 hc         1 IVL       0.048700
     18 HAE2         1.9240     0.8930    -0.4800 hc         1 IVL       0.048700
     19 HAF1        -0.3670    -1.0110    -0.1250 hx         1 IVL       0.081950
     20 HAF2        -0.3670     0.6330    -0.7990 hx         1 IVL       0.081950
     21 HAH1        -2.2300    -0.5040     1.6250 hx         1 IVL       0.071367
     22 HAH2        -0.7610    -1.4560     1.8780 hx         1 IVL       0.071367
     23 HAH3        -1.2470    -0.2450     3.0730 hx         1 IVL       0.071367
     24 HAJ1        -2.1300     1.4750     0.5030 hx         1 IVL       0.069200
     25 HAJ2        -0.6790     2.4840     0.5760 hx         1 IVL       0.069200
     26 HAK1        -2.2940     1.5300     2.9690 hc         1 IVL       0.041200
     27 HAK2        -0.8430     2.5390     3.0430 hc         1 IVL       0.041200
     28 HAL1        -1.9880     4.2820     1.7140 hc         1 IVL       0.015200
     29 HAL2        -3.4390     3.2730     1.6400 hc         1 IVL       0.015200
@<TRIPOS>BOND
     1     1     2 1   
     2     1    10 1   
     3     1    19 1   
     4     1    20 1   
     5     2     3 1   
     6     2    17 1   
     7     2    18 1   
     8     3     4 1   
     9     3    15 1   
    10     3    16 1   
    11     4    10 1   
    12     4    13 1   
    13     4    14 1   
    14     5    10 1   
    15     5    21 1   
    16     5    22 1   
    17     5    23 1   
    18     6     7 1   
    19     6    10 1   
    20     6    24 1   
    21     6    25 1   
    22     7     8 1   
    23     7    26 1   
    24     7    27 1   
    25     8     9 1   
    26     8    28 1   
    27     8    29 1   
    28     9    11 1   
    29     9    12 1   
@<TRIPOS>SUBSTRUCTURE
     1 IVL         1 TEMP              0 ****  ****    0 ROOT
