@<TRIPOS>MOLECULE
IVS
   81    80     1     0     0
SMALL
bcc


@<TRIPOS>ATOM
      1 C57          0.0000     0.0000     0.0000 c3         1 IVS       0.234400
      2 O56          1.4520     0.0000     0.0000 os         1 IVS      -0.424900
      3 C53          2.1230     0.0000     1.1620 c          1 IVS       0.713100
      4 O75          1.5200     0.0010     2.2080 o          1 IVS      -0.602000
      5 C52          3.6300     0.0010     1.1620 c3         1 IVS      -0.107400
      6 C51          4.1400     0.0010     2.6030 c3         1 IVS       0.196100
      7 O72          3.6640     1.1690     3.2770 oh         1 IVS      -0.589800
      8 C23          5.6700     0.0020     2.6040 c3         1 IVS      -0.024300
      9 C58          6.1800     0.0020     4.0460 c3         1 IVS      -0.041400
     10 N22          6.1590     1.1970     1.9120 ns         1 IVS      -0.131900
     11 C21          7.2570     1.1250     1.1360 c          1 IVS       0.588100
     12 O19          7.7780     0.0500     0.9210 o          1 IVS      -0.685100
     13 C20          7.8400     2.3780     0.5350 c3         1 IVS      -0.047300
     14 N19          9.2900     2.2270     0.4020 ns         1 IVS      -0.171900
     15 C18         10.0900     3.3080     0.4790 c          1 IVS       0.572100
     16 O36          9.6180     4.3930     0.7440 o          1 IVS      -0.671100
     17 C17         11.5700     3.1700     0.2360 c3         1 IVS      -0.049300
     18 N16         12.1040     4.4360    -0.2670 ns         1 IVS      -0.184900
     19 C12         13.1680     4.4390    -1.0960 c          1 IVS       0.572100
     20 O15         13.6820     3.3910    -1.4240 o          1 IVS      -0.654100
     21 C10         13.7160     5.7430    -1.6140 c3         1 IVS      -0.093400
     22 C2          14.9120     5.4670    -2.5260 c3         1 IVS      -0.035700
     23 C6          15.4700     6.7900    -3.0530 c3         1 IVS      -0.000600
     24 C76         -0.5100    -0.0010    -1.4420 c3         1 IVS      -0.003100
     25 C60          7.7010    -0.1580     4.0500 c3         1 IVS      -0.056700
     26 C67          8.2290     0.0040     5.4760 c3         1 IVS      -0.006600
     27 C63          8.0690    -1.5460     3.5250 c3         1 IVS      -0.006600
     28 C38          7.2230     2.6150    -0.8450 c3         1 IVS       0.030300
     29 C40          7.4540     1.3880    -1.7260 c3         1 IVS      -0.321600
     30 C44          5.7190     2.8590    -0.6950 c3         1 IVS      -0.321600
     31 C25         12.2700     2.8070     1.5480 c3         1 IVS      -0.061700
     32 C27         11.9160     3.8410     2.6170 c3         1 IVS      -0.007100
     33 C31         11.8100     1.4210     2.0050 c3         1 IVS      -0.007100
     34 C1          15.9990     4.7340    -1.7360 c3         1 IVS      -0.000600
     35 H571        -0.3610     0.8850     0.5100 h1         1 IVS       0.006200
     36 H572        -0.3610    -0.8840     0.5110 h1         1 IVS       0.006200
     37 H521         3.9900     0.8860     0.6510 hc         1 IVS       0.061700
     38 H522         3.9910    -0.8830     0.6510 hc         1 IVS       0.061700
     39 H511         3.7790    -0.8830     3.1140 h1         1 IVS       0.019700
     40 HO72         3.1660     0.9130     4.0350 ho         1 IVS       0.408000
     41 H231         6.0310    -0.8830     2.0940 h1         1 IVS       0.076700
     42 H581         5.9150     0.9380     4.5230 hc         1 IVS       0.025200
     43 H582         5.7300    -0.8200     4.5890 hc         1 IVS       0.025200
     44 H221         5.6970     2.0750     2.0440 hn         1 IVS       0.200500
     45 H201         7.6220     3.2220     1.1780 h1         1 IVS       0.064700
     46 H191         9.6860     1.3220     0.2440 hn         1 IVS       0.209500
     47 H171        11.7450     2.3890    -0.4940 h1         1 IVS       0.067700
     48 H161        11.6630     5.2990    -0.0170 hn         1 IVS       0.197500
     49 H101        14.0320     6.3590    -0.7810 hc         1 IVS       0.029700
     50 H102        12.9470     6.2610    -2.1750 hc         1 IVS       0.029700
     51 HC21        14.5960     4.8510    -3.3600 hc         1 IVS       0.037700
     52 HC61        14.6840     7.3390    -3.5570 hc         1 IVS       0.005867
     53 HC62        16.2750     6.5910    -3.7500 hc         1 IVS       0.005867
     54 HC63        15.8480     7.3780    -2.2250 hc         1 IVS       0.005867
     55 H761        -1.5850    -0.1330    -1.4450 hc         1 IVS       0.010367
     56 H762        -0.0450    -0.8120    -1.9900 hc         1 IVS       0.010367
     57 H763        -0.2610     0.9430    -1.9140 hc         1 IVS       0.010367
     58 H601         8.1450     0.5980     3.4130 hc         1 IVS       0.028700
     59 H671         8.0010     1.0000     5.8350 hc         1 IVS       0.007867
     60 H672         7.7570    -0.7290     6.1200 hc         1 IVS       0.007867
     61 H673         9.3020    -0.1460     5.4830 hc         1 IVS       0.007867
     62 H631         9.1090    -1.7530     3.7480 hc         1 IVS       0.007867
     63 H632         7.9170    -1.5790     2.4520 hc         1 IVS       0.007867
     64 H633         7.4420    -2.2900     4.0010 hc         1 IVS       0.007867
     65 H381         7.6850     3.4820    -1.3030 hc         1 IVS       0.004700
     66 H401         7.2060     1.6290    -2.7520 hc         1 IVS       0.102700
     67 H402         8.4940     1.0910    -1.6660 hc         1 IVS       0.102700
     68 H403         6.8260     0.5750    -1.3840 hc         1 IVS       0.102700
     69 H441         5.0530     3.5650    -1.1760 hc         1 IVS       0.102700
     70 H442         5.7400     2.4700    -1.7060 hc         1 IVS       0.102700
     71 H443         6.0960     3.7820    -0.2720 hc         1 IVS       0.102700
     72 H251        13.3430     2.7990     1.3940 hc         1 IVS       0.048700
     73 H271        12.2200     4.8250     2.2820 hc         1 IVS       0.010533
     74 H272        10.8460     3.8320     2.7880 hc         1 IVS       0.010533
     75 H273        12.4310     3.5980     3.5390 hc         1 IVS       0.010533
     76 H311        10.8280     1.4980     2.4550 hc         1 IVS       0.010533
     77 H312        12.5110     1.0300     2.7330 hc         1 IVS       0.010533
     78 H313        11.7660     0.7550     1.1520 hc         1 IVS       0.010533
     79 HC11        15.8960     3.6660    -1.8840 hc         1 IVS       0.005867
     80 HC12        16.9740     5.0540    -2.0810 hc         1 IVS       0.005867
     81 HC13        15.8960     4.9640    -0.6820 hc         1 IVS       0.005867
@<TRIPOS>BOND
     1     1     2 1   
     2     1    24 1   
     3     1    35 1   
     4     1    36 1   
     5     2     3 1   
     6     3     4 2   
     7     3     5 1   
     8     5     6 1   
     9     5    37 1   
    10     5    38 1   
    11     6     7 1   
    12     6     8 1   
    13     6    39 1   
    14     7    40 1   
    15     8     9 1   
    16     8    10 1   
    17     8    41 1   
    18     9    25 1   
    19     9    42 1   
    20     9    43 1   
    21    10    11 1   
    22    10    44 1   
    23    11    12 2   
    24    11    13 1   
    25    13    14 1   
    26    13    28 1   
    27    13    45 1   
    28    14    15 1   
    29    14    46 1   
    30    15    16 2   
    31    15    17 1   
    32    17    18 1   
    33    17    31 1   
    34    17    47 1   
    35    18    19 1   
    36    18    48 1   
    37    19    20 2   
    38    19    21 1   
    39    21    22 1   
    40    21    49 1   
    41    21    50 1   
    42    22    23 1   
    43    22    34 1   
    44    22    51 1   
    45    23    52 1   
    46    23    53 1   
    47    23    54 1   
    48    24    55 1   
    49    24    56 1   
    50    24    57 1   
    51    25    26 1   
    52    25    27 1   
    53    25    58 1   
    54    26    59 1   
    55    26    60 1   
    56    26    61 1   
    57    27    62 1   
    58    27    63 1   
    59    27    64 1   
    60    28    29 1   
    61    28    30 1   
    62    28    65 1   
    63    29    66 1   
    64    29    67 1   
    65    29    68 1   
    66    30    69 1   
    67    30    70 1   
    68    30    71 1   
    69    31    32 1   
    70    31    33 1   
    71    31    72 1   
    72    32    73 1   
    73    32    74 1   
    74    32    75 1   
    75    33    76 1   
    76    33    77 1   
    77    33    78 1   
    78    34    79 1   
    79    34    80 1   
    80    34    81 1   
@<TRIPOS>SUBSTRUCTURE
     1 IVS         1 TEMP              0 ****  ****    0 ROOT
