@<TRIPOS>MOLECULE
IVU
   56    58     1     0     0
SMALL
bcc


@<TRIPOS>ATOM
      1 C29          0.0000     0.0000     0.0000 c3         1 IVU       0.060200
      2 C24          1.5060     0.0000     0.0000 ca         1 IVU      -0.003300
      3 C25          2.2170     0.0000     1.1920 ca         1 IVU      -0.289300
      4 C23          2.2140    -0.0060    -1.1900 ca         1 IVU      -0.313300
      5 C20          3.5980     0.0000     1.1570 ca         1 IVU       0.429600
      6 C22          3.6030    -0.0060    -1.1510 ca         1 IVU       0.518200
      7 N28          4.3260    -0.0110    -2.3380 nv         1 IVU      -0.534500
      8 C19          4.3740     0.0000     2.4490 c3         1 IVU      -0.073700
      9 N21          4.2460     0.0010     0.0070 nb         1 IVU      -0.658000
     10 C14          6.1220    -1.1820     3.7500 ca         1 IVU      -0.085300
     11 C13          5.6370    -1.8700     4.8470 ca         1 IVU      -0.081000
     12 C18          5.3460    -1.1810     2.4590 c3         1 IVU       0.027900
     13 C16          8.0290    -0.4880     5.0360 ca         1 IVU       0.026000
     14 C12          6.3410    -1.8710     6.0400 ca         1 IVU      -0.089300
     15 C17          7.5330    -1.1850     6.1400 ca         1 IVU      -0.074000
     16 C10          6.3360    -4.0580     7.2090 c3         1 IVU      -0.044700
     17 N01          5.8120    -4.2740     9.7420 nb         1 IVU      -0.644000
     18 C02          5.3370    -4.8920    10.8130 ca         1 IVU       0.525200
     19 C04          4.4490    -6.6290     9.4290 ca         1 IVU      -0.005300
     20 C03          4.6410    -6.0890    10.6880 ca         1 IVU      -0.318300
     21 C06          5.6430    -4.7650     8.5290 ca         1 IVU       0.409600
     22 C26          9.2660     0.2280     5.1340 cg         1 IVU       0.236800
     23 C05          4.9620    -5.9490     8.3330 ca         1 IVU      -0.289300
     24 C11          5.8030    -2.6230     7.2290 c3         1 IVU       0.020900
     25 C15          7.3130    -0.4910     3.8370 ca         1 IVU      -0.075000
     26 C08          5.0160    -5.0170    13.2610 c3         1 IVU       0.200100
     27 H291        -0.3610    -0.4270     0.9280 hc         1 IVU       0.010367
     28 H292        -0.3610     1.0170    -0.0940 hc         1 IVU       0.010367
     29 H293        -0.3610    -0.5900    -0.8340 hc         1 IVU       0.010367
     30 H25          1.6890     0.0470     2.1370 ha         1 IVU       0.120000
     31 H23          1.6840    -0.0160    -2.1350 ha         1 IVU       0.119000
     32 H281         5.3260     0.0390    -2.3150 hn         1 IVU       0.270300
     33 H282         3.8470    -0.0640    -3.2150 hn         1 IVU       0.270300
     34 H191         5.0480     0.8480     2.4650 hc         1 IVU       0.026700
     35 H192         3.6870     0.0700     3.2830 hc         1 IVU       0.026700
     36 H181         5.8950    -1.2060     1.5260 hc         1 IVU       0.031200
     37 H182         4.7900    -2.1040     2.5750 hc         1 IVU       0.031200
     38 H13          4.6640    -2.3460     4.8010 ha         1 IVU       0.113000
     39 H15          7.6910     0.0470     2.9770 ha         1 IVU       0.119000
     40 H17          8.0990    -1.2120     7.0630 ha         1 IVU       0.119000
     41 H111         4.7220    -2.5540     7.2410 hc         1 IVU       0.031700
     42 H112         6.2030    -2.1930     8.1390 hc         1 IVU       0.031700
     43 H101         7.3870    -4.3160     7.1600 hc         1 IVU       0.022700
     44 H102         5.8320    -4.3850     6.3080 hc         1 IVU       0.022700
     45 H05          4.8640    -6.3700     7.3400 ha         1 IVU       0.120000
     46 H091         2.7700    -7.8830     9.8040 hc         1 IVU       0.010033
     47 H092         4.3050    -8.7440     9.6220 hc         1 IVU       0.010033
     48 H093         3.4900    -8.0780     8.2000 hc         1 IVU       0.010033
     49 H03          4.2570    -6.5860    11.5710 ha         1 IVU       0.126000
     50 H07          6.0060    -3.4590    12.1630 hn         1 IVU       0.296800
     51 H081         3.9370    -5.0800    13.1970 h1         1 IVU       0.004700
     52 H082         5.2940    -4.4630    14.1500 h1         1 IVU       0.004700
     53 H083         5.4330    -6.0150    13.3130 h1         1 IVU       0.004700
     54 N07          5.5370    -4.3390    12.0720 nu         1 IVU      -0.518900
     55 C09          3.7010    -7.9240     9.2510 c3         1 IVU       0.060200
     56 N27         10.2480     0.7890     5.2300 n1         1 IVU      -0.388800
@<TRIPOS>BOND
     1     1     2 1   
     2     1    27 1   
     3     1    28 1   
     4     1    29 1   
     5     2     3 ar  
     6     2     4 ar  
     7     3     5 ar  
     8     3    30 1   
     9     4     6 ar  
    10     4    31 1   
    11     5     8 1   
    12     5     9 ar  
    13     6     7 1   
    14     6     9 ar  
    15     7    32 1   
    16     7    33 1   
    17     8    12 1   
    18     8    34 1   
    19     8    35 1   
    20    10    11 ar  
    21    10    12 1   
    22    10    25 ar  
    23    11    14 ar  
    24    11    38 1   
    25    12    36 1   
    26    12    37 1   
    27    13    15 ar  
    28    13    22 1   
    29    13    25 ar  
    30    14    15 ar  
    31    14    24 1   
    32    15    40 1   
    33    16    21 1   
    34    16    24 1   
    35    16    43 1   
    36    16    44 1   
    37    17    18 ar  
    38    17    21 ar  
    39    18    20 ar  
    40    18    54 1   
    41    19    20 ar  
    42    19    23 ar  
    43    19    55 1   
    44    20    49 1   
    45    21    23 ar  
    46    22    56 3   
    47    23    45 1   
    48    24    41 1   
    49    24    42 1   
    50    25    39 1   
    51    26    51 1   
    52    26    52 1   
    53    26    53 1   
    54    26    54 1   
    55    46    55 1   
    56    47    55 1   
    57    48    55 1   
    58    50    54 1   
@<TRIPOS>SUBSTRUCTURE
     1 IVU         1 TEMP              0 ****  ****    0 ROOT
