@<TRIPOS>MOLECULE
molecule
   56    58     1     0     0
SMALL
bcc


@<TRIPOS>ATOM
      1 C29          0.0000     0.0000     0.0000 c3         1 IVU      -0.050800
      2 C24          1.5060     0.0000     0.0000 ca         1 IVU      -0.003300
      3 C25          2.2170     0.0000     1.1920 ca         1 IVU      -0.310300
      4 C23          2.2140    -0.0060    -1.1900 ca         1 IVU      -0.329300
      5 C20          3.5980     0.0000     1.1570 ca         1 IVU       0.477600
      6 C22          3.6030    -0.0060    -1.1510 ca         1 IVU       0.713200
      7 N28          4.3260    -0.0110    -2.3380 nv         1 IVU      -1.014500
      8 C19          4.3740     0.0000     2.4490 c3         1 IVU      -0.126700
      9 N21          4.2460     0.0010     0.0070 nb         1 IVU      -0.774000
     10 C14          6.1220    -1.1820     3.7500 ca         1 IVU      -0.085300
     11 C13          5.6370    -1.8700     4.8470 ca         1 IVU      -0.106000
     12 C18          5.3460    -1.1810     2.4590 c3         1 IVU      -0.032100
     13 C16          8.0290    -0.4880     5.0360 ca         1 IVU      -0.020000
     14 C12          6.3410    -1.8710     6.0400 ca         1 IVU      -0.088300
     15 C17          7.5330    -1.1850     6.1400 ca         1 IVU      -0.091000
     16 C10          6.3360    -4.0580     7.2090 c3         1 IVU      -0.103700
     17 N01          5.8120    -4.2740     9.7420 nb         1 IVU      -0.769000
     18 C02          5.3370    -4.8920    10.8130 ca         1 IVU       0.711200
     19 C04          4.4490    -6.6290     9.4290 ca         1 IVU      -0.005300
     20 C03          4.6410    -6.0890    10.6880 ca         1 IVU      -0.329300
     21 C06          5.6430    -4.7650     8.5290 ca         1 IVU       0.459600
     22 C26          9.2660     0.2280     5.1340 cg         1 IVU       0.242800
     23 C05          4.9620    -5.9490     8.3330 ca         1 IVU      -0.311300
     24 C11          5.8030    -2.6230     7.2290 c3         1 IVU      -0.038100
     25 C15          7.3130    -0.4910     3.8370 ca         1 IVU      -0.092000
     26 C08          5.0160    -5.0170    13.2610 c3         1 IVU       0.231100
     27 H291        -0.3610    -0.4270     0.9280 hc         1 IVU       0.047367
     28 H292        -0.3610     1.0170    -0.0940 hc         1 IVU       0.047367
     29 H293        -0.3610    -0.5900    -0.8340 hc         1 IVU       0.047367
     30 H25          1.6890     0.0470     2.1370 ha         1 IVU       0.136000
     31 H23          1.6840    -0.0160    -2.1350 ha         1 IVU       0.134000
     32 H281         5.3260     0.0390    -2.3150 hn         1 IVU       0.439300
     33 H282         3.8470    -0.0640    -3.2150 hn         1 IVU       0.439300
     34 H191         5.0480     0.8480     2.4650 hc         1 IVU       0.060700
     35 H192         3.6870     0.0700     3.2830 hc         1 IVU       0.060700
     36 H181         5.8950    -1.2060     1.5260 hc         1 IVU       0.063200
     37 H182         4.7900    -2.1040     2.5750 hc         1 IVU       0.063200
     38 H13          4.6640    -2.3460     4.8010 ha         1 IVU       0.136000
     39 H15          7.6910     0.0470     2.9770 ha         1 IVU       0.145000
     40 H17          8.0990    -1.2120     7.0630 ha         1 IVU       0.145000
     41 H111         4.7220    -2.5540     7.2410 hc         1 IVU       0.065200
     42 H112         6.2030    -2.1930     8.1390 hc         1 IVU       0.065200
     43 H101         7.3870    -4.3160     7.1600 hc         1 IVU       0.060200
     44 H102         5.8320    -4.3850     6.3080 hc         1 IVU       0.060200
     45 H05          4.8640    -6.3700     7.3400 ha         1 IVU       0.136000
     46 H091         2.7700    -7.8830     9.8040 hc         1 IVU       0.046700
     47 H092         4.3050    -8.7440     9.6220 hc         1 IVU       0.046700
     48 H093         3.4900    -8.0780     8.2000 hc         1 IVU       0.046700
     49 H03          4.2570    -6.5860    11.5710 ha         1 IVU       0.137000
     50 H07          6.0060    -3.4590    12.1630 hn         1 IVU       0.448800
     51 H081         3.9370    -5.0800    13.1970 h1         1 IVU       0.036033
     52 H082         5.2940    -4.4630    14.1500 h1         1 IVU       0.036033
     53 H083         5.4330    -6.0150    13.3130 h1         1 IVU       0.036033
     54 N07          5.5370    -4.3390    12.0720 nu         1 IVU      -0.923900
     55 C09          3.7010    -7.9240     9.2510 c3         1 IVU      -0.049800
     56 N27         10.2480     0.7890     5.2300 n1         1 IVU      -0.368800
@<TRIPOS>BOND
     1     1     2 1
     2     2     3 ar
     3     2     4 ar
     4     3     5 ar
     5     4     6 ar
     6     6     7 1
     7     6     9 ar
     8     9     5 ar
     9     5     8 1
    10     8    12 1
    11    12    10 1
    12    10    11 ar
    13    10    25 ar
    14    11    14 ar
    15    25    13 ar
    16    13    22 1
    17    13    15 ar
    18    22    56 3
    19    15    14 ar
    20    14    24 1
    21    24    16 1
    22    16    21 1
    23    21    17 ar
    24    21    23 ar
    25    17    18 ar
    26    23    19 ar
    27    19    55 1
    28    19    20 ar
    29    20    18 ar
    30    18    54 1
    31    54    26 1
    32     1    27 1
    33     1    28 1
    34     1    29 1
    35     3    30 1
    36     4    31 1
    37     7    32 1
    38     7    33 1
    39     8    34 1
    40     8    35 1
    41    12    36 1
    42    12    37 1
    43    11    38 1
    44    25    39 1
    45    15    40 1
    46    24    41 1
    47    24    42 1
    48    16    43 1
    49    16    44 1
    50    23    45 1
    51    55    46 1
    52    55    47 1
    53    55    48 1
    54    20    49 1
    55    54    50 1
    56    26    51 1
    57    26    52 1
    58    26    53 1
@<TRIPOS>SUBSTRUCTURE
     1 IVU         1 TEMP              0 ****  ****    0 ROOT
