@<TRIPOS>MOLECULE
IW1
   27    27     1     0     0
SMALL
bcc


@<TRIPOS>ATOM
      1 OAA         0.5120    1.0820   -1.0850 oh        1 IW1     -0.228000
      2 CLAC        7.0730    1.0820   -1.3640 cl        1 IW1     -0.007000
      3 BRAD        0.9710    1.0320    1.9120 br        1 IW1      0.085000
      4 BRAE        2.1730    0.3200   -3.6600 br        1 IW1      0.063000
      5 CAF         4.8210   -0.6710   -2.4230 c1        1 IW1     -0.142000
      6 CAG         5.7250   -0.9380   -3.3230 c2        1 IW1     -0.057000
      7 CAH         9.4130    2.4030   -2.8990 c1        1 IW1      0.253000
      8 CAI         7.9350   -1.2060   -5.6390 c2        1 IW1     -0.197000
      9 CAJ         8.4660    1.7360   -3.5300 c2        1 IW1     -0.465000
     10 CAK         3.2150   -0.2870    0.8900 c2        1 IW1     -0.085000
     11 CAL         3.8890   -0.4660   -1.5190 c2        1 IW1      0.019000
     12 CAM         1.7380    0.5200   -0.8560 c2        1 IW1      0.151000
     13 CAN         7.1400   -0.2290   -5.1950 c2        1 IW1     -0.064000
     14 CAO         7.4250    0.8730   -3.0200 c2        1 IW1      0.030000
     15 CAP         2.0800    0.3570    0.5560 c2        1 IW1     -0.176000
     16 CAQ         2.5980    0.1210   -1.8410 c2        1 IW1     -0.272000
     17 CAR         4.1570   -0.8510   -0.0980 c3        1 IW1     -0.105000
     18 CAS         6.7800   -0.0440   -3.7810 c2        1 IW1     -0.044000
     19 HOAA        0.3810    1.1650   -2.0460 ho        1 IW1      0.238000
     20 HAF         5.2040   -0.5340    0.1790 hc        1 IW1      0.119000
     21 HAG         5.7020   -1.9200   -3.8390 ha        1 IW1      0.150000
     22 HAH         8.4710    1.8600   -4.6420 ha        1 IW1      0.213000
     23 HAI         8.1740   -1.3440   -6.7020 ha        1 IW1      0.135000
     24 HAJ         8.3970   -1.9260   -4.9490 ha        1 IW1      0.135000
     25 HAK         3.5010   -0.4380    1.9460 ha        1 IW1      0.150000
     26 HAL         4.1230   -1.9760   -0.0150 hc        1 IW1      0.119000
     27 CLAB        6.4230    0.8830   -6.2770 cl        1 IW1     -0.023000
@<TRIPOS>BOND
     1    1   12 1   
     2    1   19 1   
     3    2   14 1   
     4    3   15 1   
     5    4   16 1   
     6    5    6 1   
     7    5   11 1   
     8    6   18 1   
     9    6   21 1   
    10    7    9 1   
    11    8   13 1   
    12    8   23 1   
    13    8   24 1   
    14    9   14 1   
    15    9   22 1   
    16   10   15 1   
    17   10   17 1   
    18   10   25 1   
    19   11   16 1   
    20   11   17 1   
    21   12   15 1   
    22   12   16 1   
    23   13   18 1   
    24   13   27 1   
    25   14   18 1   
    26   17   20 1   
    27   17   26 1   
@<TRIPOS>SUBSTRUCTURE
     1 IW1         1 TEMP              0 ****  ****    0 ROOT
