@<TRIPOS>MOLECULE
molecule
   27    28     1     0     0
SMALL
bcc


@<TRIPOS>ATOM
      1 OAA          0.0000     0.0000     0.0000 oh         1 IW1      -0.500100
      2 ClAC         7.3560     2.0880    -1.9620 cl         1 IW1      -0.091900
      3 BrAD         1.9830    -0.0030     2.3120 br         1 IW1      -0.068100
      4 BrAE         0.0950     0.0300    -3.0440 br         1 IW1      -0.068100
      5 CAF          5.2860     0.0090    -1.8630 ce         1 IW1      -0.088200
      6 CAG          5.5320     0.0160    -3.1830 cf         1 IW1      -0.115200
      7 CAH          9.5360     0.0190    -4.5950 ca         1 IW1      -0.111000
      8 CAI          8.6290    -0.8960    -5.1000 ca         1 IW1      -0.119000
      9 CAJ          9.1440     0.9330    -3.6340 ca         1 IW1      -0.119000
     10 CAK          3.6370     0.0000     0.0000 ca         1 IW1      -0.072000
     11 CAL          2.8330     0.0140    -2.2810 ca         1 IW1      -0.072000
     12 CAM          1.2820     0.0000    -0.4520 ca         1 IW1       0.152100
     13 CAN          7.3250    -0.9040    -4.6450 ca         1 IW1       0.041400
     14 CAO          7.8440     0.9400    -3.1700 ca         1 IW1       0.041400
     15 CAP          2.3350     0.0000     0.4540 ca         1 IW1      -0.044400
     16 CAQ          1.5350     0.0130    -1.8180 ca         1 IW1      -0.044400
     17 CAR          3.8960     0.0080    -1.3740 ca         1 IW1      -0.062800
     18 CAS          6.9220     0.0170    -3.6740 ca         1 IW1      -0.045800
     19 HOAA        -0.2980    -0.8890     0.1000 ho         1 IW1       0.432000
     20 HAF          6.1090     0.0050    -1.1590 ha         1 IW1       0.147000
     21 HAG          4.7100     0.0200    -3.8880 ha         1 IW1       0.148000
     22 HAH         10.5570     0.0200    -4.9550 ha         1 IW1       0.144000
     23 HAI          8.9420    -1.6090    -5.8530 ha         1 IW1       0.149500
     24 HAJ          9.8600     1.6470    -3.2440 ha         1 IW1       0.149500
     25 HAK          4.4570    -0.0710     0.7050 ha         1 IW1       0.154500
     26 HAL          3.0280    -0.0450    -3.3450 ha         1 IW1       0.154500
     27 ClAB         6.1890    -2.0540    -5.2800 cl         1 IW1      -0.091900
@<TRIPOS>BOND
     1    12     1 1
     2     1    19 1
     3    13    27 1
     4    14     2 1
     5    15     3 1
     6    16     4 1
     7     6     5 2
     8     5    17 1
     9     5    20 1
    10    18     6 1
    11     6    21 1
    12     7     9 ar
    13     7     8 ar
    14     7    22 1
    15     8    13 ar
    16     8    23 1
    17     9    14 ar
    18     9    24 1
    19    17    10 ar
    20    10    15 ar
    21    10    25 1
    22    17    11 ar
    23    11    16 ar
    24    11    26 1
    25    16    12 ar
    26    15    12 ar
    27    13    18 ar
    28    14    18 ar
@<TRIPOS>SUBSTRUCTURE
     1 IW1         1 TEMP              0 ****  ****    0 ROOT
