@<TRIPOS>MOLECULE
IW2
   29    29     1     0     0
SMALL
bcc


@<TRIPOS>ATOM
      1 OAA         0.6940    1.4430    0.2180 oh        1 IW2     -0.202000
      2 CLAC        6.6460   -2.6350   -5.0670 cl        1 IW2     -0.005000
      3 BRAD        2.6800    0.0530    2.2050 br        1 IW2      0.067000
      4 BRAE        0.3890    1.6040   -2.8500 br        1 IW2      0.092000
      5 CAF         9.5690   -1.7480   -5.5330 c1        1 IW2      0.260000
      6 CAG         8.2790    0.2900   -1.5100 c2        1 IW2     -0.197000
      7 CAH         9.0390   -1.7290   -4.3250 c2        1 IW2     -0.467000
      8 CAI         3.5610   -0.7850   -0.3280 c2        1 IW2     -0.032000
      9 CAJ         2.5690   -0.0970   -2.5250 c1        1 IW2     -0.068000
     10 CAK         4.9460   -0.7020   -2.4010 c3        1 IW2     -0.119000
     11 CAL         5.8390   -1.9090   -2.1830 c3        1 IW2     -0.127000
     12 CAM         8.1130   -1.0260   -1.6590 c2        1 IW2     -0.068000
     13 CAN         7.6770   -1.9480   -3.8920 c2        1 IW2      0.025000
     14 CAO         1.6300    0.7020   -0.4210 c2        1 IW2      0.228000
     15 CAP         2.6410   -0.0390    0.3270 c2        1 IW2     -0.289000
     16 CAQ         1.6280    0.6570   -1.8130 c2        1 IW2     -0.308000
     17 CAR         3.5530   -0.9140   -1.8080 c3        1 IW2     -0.147000
     18 CAS         7.2290   -1.6430   -2.6540 c2        1 IW2     -0.088000
     19 HOAA        0.8280    1.3830    1.1830 ho        1 IW2      0.243000
     20 HAF         7.7640    1.0090   -2.1620 ha        1 IW2      0.137000
     21 HAG         8.9290    0.7270   -0.7400 ha        1 IW2      0.137000
     22 HAH         9.7610   -1.5060   -3.5000 ha        1 IW2      0.210000
     23 HAI         4.3490   -1.3350    0.2150 ha        1 IW2      0.154000
     24 HAJ         3.2290   -1.9840   -2.0450 hc        1 IW2      0.176000
     25 HAK         4.8330   -0.5110   -3.5020 hc        1 IW2      0.110500
     26 HAKA        5.4140    0.2070   -1.9410 hc        1 IW2      0.110500
     27 HAL         5.8730   -2.1710   -1.0900 hc        1 IW2      0.098500
     28 HALA        5.4100   -2.7970   -2.7210 hc        1 IW2      0.098500
     29 CLAB        8.9180   -2.1370   -0.6340 cl        1 IW2     -0.030000
@<TRIPOS>BOND
     1    1   14 1   
     2    1   19 1   
     3    2   13 1   
     4    3   15 1   
     5    4   16 1   
     6    5    7 1   
     7    6   12 1   
     8    6   20 1   
     9    6   21 1   
    10    7   13 1   
    11    7   22 1   
    12    8   15 1   
    13    8   17 1   
    14    8   23 1   
    15    9   16 1   
    16    9   17 1   
    17   10   11 1   
    18   10   17 1   
    19   10   25 1   
    20   10   26 1   
    21   11   18 1   
    22   11   27 1   
    23   11   28 1   
    24   12   18 1   
    25   12   29 1   
    26   13   18 1   
    27   14   15 1   
    28   14   16 1   
    29   17   24 1   
@<TRIPOS>SUBSTRUCTURE
     1 IW2         1 TEMP              0 ****  ****    0 ROOT
