@<TRIPOS>MOLECULE
molecule
   29    30     1     0     0
SMALL
bcc


@<TRIPOS>ATOM
      1 OAA          0.0000     0.0000     0.0000 oh         1 IW2      -0.501100
      2 ClAC         6.1730    -1.4020    -5.0170 cl         1 IW2      -0.097400
      3 BrAD         1.9850    -0.0090     2.3160 br         1 IW2      -0.070100
      4 BrAE         0.1150    -0.0120    -3.0480 br         1 IW2      -0.070100
      5 CAF          9.8410    -1.4110    -3.4350 ca         1 IW2      -0.114000
      6 CAG          9.5830    -1.4150    -2.0770 ca         1 IW2      -0.116500
      7 CAH          8.7940    -1.4050    -4.3380 ca         1 IW2      -0.116500
      8 CAI          3.6400     0.0000     0.0000 ca         1 IW2      -0.078000
      9 CAJ          2.8500     0.0070    -2.2630 ca         1 IW2      -0.078000
     10 CAK          5.3200     0.0120    -1.8560 c3         1 IW2      -0.028100
     11 CAL          5.8060    -1.4280    -2.0280 c3         1 IW2      -0.040100
     12 CAM          8.2770    -1.4210    -1.6210 ca         1 IW2       0.036400
     13 CAN          7.4880    -1.4100    -3.8840 ca         1 IW2       0.036400
     14 CAO          1.2830     0.0050    -0.4480 ca         1 IW2       0.148100
     15 CAP          2.3350     0.0000     0.4580 ca         1 IW2      -0.043900
     16 CAQ          1.5450     0.0010    -1.8110 ca         1 IW2      -0.043900
     17 CAR          3.8970     0.0060    -1.3590 ca         1 IW2      -0.089300
     18 CAS          7.2290    -1.4220    -2.5250 ca         1 IW2      -0.072300
     19 HOAA        -0.3010     0.8880     0.1040 ho         1 IW2       0.431000
     20 HAF         10.8640    -1.4060    -3.7920 ha         1 IW2       0.145000
     21 HAG         10.4040    -1.4200    -1.3700 ha         1 IW2       0.149000
     22 HAH          8.9970    -1.4010    -5.4030 ha         1 IW2       0.149000
     23 HAI          4.4610    -0.0000     0.7060 ha         1 IW2       0.153000
     24 HAJ          3.0540     0.0110    -3.3270 ha         1 IW2       0.153000
     25 HAK          5.3670     0.5260    -2.8080 hc         1 IW2       0.059700
     26 HAKA         5.9500     0.5230    -1.1380 hc         1 IW2       0.059700
     27 HAL          5.1750    -1.9380    -2.7460 hc         1 IW2       0.068700
     28 HALA         5.7590    -1.9420    -1.0760 hc         1 IW2       0.068700
     29 ClAB         7.9530    -1.4290     0.0840 cl         1 IW2      -0.097400
@<TRIPOS>BOND
     1     1    14 1
     2     1    19 1
     3    29    12 1
     4     2    13 1
     5     3    15 1
     6     4    16 1
     7     7     5 ar
     8     6     5 ar
     9     5    20 1
    10    12     6 ar
    11     6    21 1
    12    13     7 ar
    13     7    22 1
    14    15     8 ar
    15     8    17 ar
    16     8    23 1
    17    16     9 ar
    18     9    17 ar
    19     9    24 1
    20    17    10 1
    21    10    11 1
    22    10    25 1
    23    10    26 1
    24    11    18 1
    25    11    27 1
    26    11    28 1
    27    18    12 ar
    28    18    13 ar
    29    14    16 ar
    30    14    15 ar
@<TRIPOS>SUBSTRUCTURE
     1 IW2         1 TEMP              0 ****  ****    0 ROOT
