@<TRIPOS>MOLECULE
molecule
   29    30     1     0     0
SMALL
bcc


@<TRIPOS>ATOM
      1 NAA          0.0000     0.0000     0.0000 nv         1 IW3      -0.946200
      2 BrAC         7.2010    -3.5600     7.1890 br         1 IW3      -0.102600
      3 BrAD         6.8970    -5.6990     1.8650 br         1 IW3      -0.102600
      4 CAE          4.8930    -0.0310     2.8060 ce         1 IW3      -0.273200
      5 CAF          5.2910    -1.1340     3.4040 cf         1 IW3      -0.163200
      6 CAG          2.4130     0.0000     0.0000 ca         1 IW3      -0.155500
      7 CAH          1.2070    -0.0010     2.0890 ca         1 IW3      -0.155500
      8 CAI          3.6070     0.0000     0.6840 ca         1 IW3      -0.105500
      9 CAJ          2.3980    -0.0130     2.7800 ca         1 IW3      -0.105500
     10 CAK          5.8300    -2.3320     4.9560 ca         1 IW3      -0.256000
     11 CAL          5.8120    -3.1630     2.7050 ca         1 IW3      -0.256000
     12 CAM          1.2090    -0.0010     0.6980 ca         1 IW3       0.207600
     13 CAN          7.0420    -4.3280     4.4040 ca         1 IW3       0.030100
     14 CAO          6.6440    -3.3860     5.3390 ca         1 IW3       0.069600
     15 CAP          6.6260    -4.2160     3.0870 ca         1 IW3       0.069600
     16 CAQ          3.6100    -0.0070     2.0830 ca         1 IW3      -0.212800
     17 CAR          5.4140    -2.2200     3.6390 ca         1 IW3       0.129200
     18 HNAA        -0.7200     0.6490     0.2480 hn         1 IW3       0.440300
     19 HNAB        -0.1610    -0.6740    -0.7220 hn         1 IW3       0.440300
     20 HOAB         8.7520    -5.1800     4.6870 ho         1 IW3       0.412000
     21 HAE          4.2340    -0.1000     1.9490 ha         1 IW3       0.401000
     22 HAF          4.5670    -1.9200     3.2260 ha         1 IW3       0.202000
     23 HAG          2.4090     0.0060    -1.0830 ha         1 IW3       0.154500
     24 HAH          0.2680    -0.0060     2.6280 ha         1 IW3       0.154500
     25 HAI          4.5430     0.0010     0.1400 ha         1 IW3       0.165500
     26 HAJ          2.3960    -0.0130     3.8630 ha         1 IW3       0.165500
     27 HAK          5.5400    -1.5810     5.6810 ha         1 IW3       0.148000
     28 HAL          5.5200    -3.0530     1.6680 ha         1 IW3       0.148000
     29 OAB          7.8440    -5.4070     4.7960 oh         1 IW3      -0.505100
@<TRIPOS>BOND
     1     1    12 1
     2     1    18 1
     3     1    19 1
     4    13    29 1
     5    29    20 1
     6    14     2 1
     7    15     3 1
     8    16     4 1
     9     4     5 2
    10     4    21 1
    11     5    17 1
    12     5    22 1
    13    12     6 ar
    14     6     8 ar
    15     6    23 1
    16    12     7 ar
    17     7     9 ar
    18     7    24 1
    19     8    16 ar
    20     8    25 1
    21     9    16 ar
    22     9    26 1
    23    17    10 ar
    24    10    14 ar
    25    10    27 1
    26    17    11 ar
    27    11    15 ar
    28    11    28 1
    29    14    13 ar
    30    15    13 ar
@<TRIPOS>SUBSTRUCTURE
     1 IW3         1 TEMP              0 ****  ****    0 ROOT
