@<TRIPOS>MOLECULE
IW3
   29    30     1     0     0
SMALL
bcc


@<TRIPOS>ATOM
      1 NAA          0.0000     0.0000     0.0000 nv         1 IW3      -0.562200
      2 BrAC         1.9000    -1.3290     8.2820 br         1 IW3      -0.108100
      3 BrAD         7.0870     0.8000     8.2500 br         1 IW3      -0.108100
      4 CAE          4.8960    -0.0260     2.8020 ce         1 IW3      -0.033200
      5 CAF          4.9140    -0.0570     4.1210 cf         1 IW3      -0.103200
      6 CAG          2.4130     0.0000     0.0000 ca         1 IW3      -0.116000
      7 CAH          1.2070    -0.0010     2.0890 ca         1 IW3      -0.116000
      8 CAI          3.6070     0.0000     0.6840 ca         1 IW3      -0.094000
      9 CAJ          2.3980    -0.0130     2.7800 ca         1 IW3      -0.094000
     10 CAK          3.1110    -0.1140     5.9510 ca         1 IW3      -0.028500
     11 CAL          5.2590     0.9530     5.8940 ca         1 IW3      -0.028500
     12 CAM          1.2090    -0.0010     0.6980 ca         1 IW3       0.037600
     13 CAN          4.4500    -0.0050     7.9390 ca         1 IW3       0.167100
     14 CAO          3.2880    -0.3970     7.2960 ca         1 IW3      -0.013900
     15 CAP          5.4360     0.6700     7.2380 ca         1 IW3      -0.013900
     16 CAQ          3.6100    -0.0070     2.0830 ca         1 IW3      -0.082800
     17 CAR          4.0960     0.5610     5.2500 ca         1 IW3      -0.100800
     18 HNAA        -0.4080     0.8660    -0.2930 hn         1 IW3       0.273300
     19 HNAB        -0.4700    -0.8630    -0.1880 hn         1 IW3       0.273300
     20 HOAB         4.9410    -1.1590     9.4080 ho         1 IW3       0.410000
     21 HAE          5.6310    -0.5860     2.2360 ha         1 IW3       0.105000
     22 HAF          5.8600    -0.0710     4.6490 ha         1 IW3       0.109000
     23 HAG          2.4090     0.0060    -1.0830 ha         1 IW3       0.108000
     24 HAH          0.2680    -0.0060     2.6280 ha         1 IW3       0.108000
     25 HAI          4.5430     0.0010     0.1400 ha         1 IW3       0.117000
     26 HAJ          2.3960    -0.0130     3.8630 ha         1 IW3       0.117000
     27 HAK          2.2210    -0.4590     5.4380 ha         1 IW3       0.130000
     28 HAL          6.0040     1.5300     5.3600 ha         1 IW3       0.130000
     29 OAB          4.6230    -0.2780     9.3020 oh         1 IW3      -0.482100
@<TRIPOS>BOND
     1     1    12 1   
     2     1    18 1   
     3     1    19 1   
     4     2    14 1   
     5     3    15 1   
     6     4     5 2   
     7     4    16 1   
     8     4    21 1   
     9     5    17 1   
    10     5    22 1   
    11     6     8 ar  
    12     6    12 ar  
    13     6    23 1   
    14     7     9 ar  
    15     7    12 ar  
    16     7    24 1   
    17     8    16 ar  
    18     8    25 1   
    19     9    16 ar  
    20     9    26 1   
    21    10    14 ar  
    22    10    17 ar  
    23    10    27 1   
    24    11    15 ar  
    25    11    17 ar  
    26    11    28 1   
    27    13    14 ar  
    28    13    15 ar  
    29    13    29 1   
    30    20    29 1   
@<TRIPOS>SUBSTRUCTURE
     1 IW3         1 TEMP              0 ****  ****    0 ROOT
