@<TRIPOS>MOLECULE
molecule
   30    31     1     0     0
SMALL
bcc


@<TRIPOS>ATOM
      1 NAA          0.0000     0.0000     0.0000 nv         1 IW4      -0.964200
      2 BrAC         6.9120     0.0570    -9.0760 br         1 IW4      -0.093600
      3 BrAD         1.2380     0.0920    -9.3850 br         1 IW4      -0.093600
      4 CAE          3.1850     0.0500    -3.7200 ce         1 IW4      -0.136200
      5 CAF          4.4560     0.0500    -4.1540 cf         1 IW4      -0.087200
      6 CAG          3.6800     0.0000     0.0000 ca         1 IW4      -0.103000
      7 CAH          2.3720     0.0000     0.4490 ca         1 IW4      -0.171000
      8 CAI          3.9500     0.0160    -1.3520 ca         1 IW4      -0.156000
      9 CAJ          1.5790     0.0220    -1.8210 ca         1 IW4      -0.154000
     10 CAK          5.1570     0.0520    -6.8420 ca         1 IW4      -0.044000
     11 CAL          2.7410     0.0700    -6.9730 ca         1 IW4      -0.044000
     12 CAM          1.3190     0.0110    -0.4590 ca         1 IW4       0.181600
     13 CAN          5.2280     0.0600    -8.2180 ca         1 IW4      -0.099900
     14 CAO          2.8190     0.0710    -8.3490 ca         1 IW4      -0.099900
     15 CAP          4.0610     0.0690    -8.9770 ca         1 IW4       0.244600
     16 CAQ          2.8990     0.0330    -2.2740 ca         1 IW4      -0.046800
     17 CAR          3.9100     0.0540    -6.2080 ca         1 IW4      -0.122800
     18 HNAA        -0.6320     0.7230    -0.2810 hn         1 IW4       0.429300
     19 HNAB        -0.2960    -0.6980     0.6540 hn         1 IW4       0.429300
     20 HNAC         3.2990     0.1010   -10.9170 hn         1 IW4       0.444800
     21 HNAD         5.0290     0.0970   -10.8230 hn         1 IW4       0.444800
     22 HAE          2.3690     0.0520    -4.4340 ha         1 IW4       0.141000
     23 HAF          5.2710     0.0380    -3.4410 ha         1 IW4       0.187000
     24 HAG          4.4950    -0.0110     0.7130 ha         1 IW4       0.129000
     25 HAH          2.1670    -0.0130     1.5130 ha         1 IW4       0.132000
     26 HAI          4.9760     0.0160    -1.7000 ha         1 IW4       0.124000
     27 HAJ          0.7630    -0.0650    -2.5280 ha         1 IW4       0.137000
     28 HAK          6.0650     0.0870    -6.2520 ha         1 IW4       0.149000
     29 HAL          1.7760     0.1330    -6.4850 ha         1 IW4       0.149000
     30 NAB          4.1370     0.0760   -10.3700 nv         1 IW4      -0.905200
@<TRIPOS>BOND
     1    12     1 1
     2     1    18 1
     3     1    19 1
     4    30    15 1
     5    30    20 1
     6    30    21 1
     7     2    13 1
     8     3    14 1
     9     5     4 2
    10     4    16 1
    11     4    22 1
    12    17     5 1
    13     5    23 1
    14     8     6 ar
    15     6     7 ar
    16     6    24 1
    17    12     7 ar
    18     7    25 1
    19    16     8 ar
    20     8    26 1
    21    16     9 ar
    22     9    12 ar
    23     9    27 1
    24    13    10 ar
    25    10    17 ar
    26    10    28 1
    27    14    11 ar
    28    11    17 ar
    29    11    29 1
    30    15    13 ar
    31    15    14 ar
@<TRIPOS>SUBSTRUCTURE
     1 IW4         1 TEMP              0 ****  ****    0 ROOT
