@<TRIPOS>MOLECULE
IW4
   30    26     1     0     0
SMALL
bcc


@<TRIPOS>ATOM
      1 NAA         2.1220    0.9990    0.8670 n3        1 IW4     -0.251000
      2 BRAC        3.7990    2.0390   -7.0930 br        1 IW4      0.039000
      3 BRAD        1.5620    0.0550  -11.4730 br        1 IW4      0.049000
      4 CAE         4.2500   -0.0790   -3.3570 c2        1 IW4     -0.387500
      5 CAF         4.9910   -0.4110   -4.3870 c1        1 IW4      0.161000
      6 CAG         4.8470   -1.0760   -0.3370 c1        1 IW4      0.120000
      7 CAH         0.4320    0.0110    2.5040 c1        1 IW4     -0.263000
      8 CAI         4.8010   -1.3370    0.9340 c2        1 IW4     -0.518000
      9 CAJ         2.3820    1.0530   -2.2360 c1        1 IW4      0.161000
     10 CAK         4.8390   -0.5240   -7.7070 c2        1 IW4     -0.130000
     11 CAL         1.6340   -0.6860   -8.8020 c1        1 IW4     -0.105000
     12 CAM         1.1910    0.5110    1.7190 c1        1 IW4     -0.112000
     13 CAN         4.1400    0.5220   -8.1490 c2        1 IW4     -0.202000
     14 CAO         2.3650   -0.0020   -9.7750 c2        1 IW4     -0.202000
     15 CAP         3.5770    0.5860   -9.5180 c2        1 IW4      0.131000
     16 CAQ         3.0630    0.7370   -3.3170 c2        1 IW4     -0.387500
     17 CAR         0.9830   -1.2760   -7.9880 c1        1 IW4     -0.203000
     18 HNAA        1.8380    0.9080   -0.0980 hn        1 IW4      0.195000
     19 HNAB        2.3550    1.9510    1.0810 hn        1 IW4      0.195000
     20 HNAC        3.9190    1.4580  -11.3290 hn        1 IW4      0.215000
     21 HNAD        5.0590    1.8220  -10.1460 hn        1 IW4      0.215000
     22 HAE         0.4070   -1.7990   -7.2690 ha        1 IW4      0.225000
     23 HAF         4.5950   -0.4960   -2.3630 ha        1 IW4      0.222500
     24 HAG         5.4860   -2.0060    1.4770 ha        1 IW4      0.208000
     25 HAH        -0.2340   -0.4330    3.1950 ha        1 IW4      0.230000
     26 HAI         4.0310   -0.8830    1.5890 ha        1 IW4      0.208000
     27 HAJ         2.7010    1.1270   -4.2950 ha        1 IW4      0.222500
     28 HAK         5.2520   -0.5880   -6.6850 ha        1 IW4      0.152000
     29 HAL         5.0340   -1.3960   -8.3500 ha        1 IW4      0.152000
     30 NAB         4.3620    1.1970  -10.4770 n3        1 IW4     -0.336000
@<TRIPOS>BOND
     1    1   12 1   
     2    1   18 1   
     3    1   19 1   
     4    2   13 1   
     5    3   14 1   
     6    4    5 1   
     7    4   16 1   
     8    4   23 1   
     9    6    8 1   
    10    7   12 1   
    11    7   25 1   
    12    8   24 1   
    13    8   26 1   
    14    9   16 1   
    15   10   13 1   
    16   10   28 1   
    17   10   29 1   
    18   11   14 1   
    19   11   17 1   
    20   13   15 1   
    21   14   15 1   
    22   15   30 1   
    23   16   27 1   
    24   17   22 1   
    25   20   30 1   
    26   21   30 1   
@<TRIPOS>SUBSTRUCTURE
     1 IW4         1 TEMP              0 ****  ****    0 ROOT
