@<TRIPOS>MOLECULE
molecule
   30    31     1     0     0
SMALL
bcc


@<TRIPOS>ATOM
      1 NAA          0.0000     0.0000     0.0000 nv         1 IW5      -0.989200
      2 BrAC        10.4870    -2.9510     1.0070 br         1 IW5      -0.104100
      3 BrAD         8.8310     1.9750    -1.4750 br         1 IW5      -0.104100
      4 CAE          4.8860     0.0210     2.8180 ce         1 IW5      -0.130200
      5 CAF          5.8440    -0.8280     2.5060 cf         1 IW5      -0.062200
      6 CAG          2.4120     0.0000     0.0000 ca         1 IW5      -0.144000
      7 CAH          1.2070    -0.0170     2.0880 ca         1 IW5      -0.144000
      8 CAI          3.6080     0.0000     0.6850 ca         1 IW5      -0.115500
      9 CAJ          2.3980    -0.0110     2.7810 ca         1 IW5      -0.115500
     10 CAK          8.3690    -1.2230     1.9530 ca         1 IW5      -0.054500
     11 CAL          7.6640     0.8190     0.9060 ca         1 IW5      -0.054500
     12 CAM          1.2090    -0.0060     0.6980 ca         1 IW5       0.167600
     13 CAN          9.3350    -1.3910     0.9740 ca         1 IW5      -0.070900
     14 CAO          8.6310     0.6500    -0.0730 ca         1 IW5      -0.070900
     15 CAP          9.4660    -0.4540    -0.0390 ca         1 IW5       0.240600
     16 CAQ          3.6100    -0.0050     2.0840 ca         1 IW5      -0.081800
     17 CAR          7.5340    -0.1180     1.9190 ca         1 IW5      -0.127800
     18 HNAA        -0.5150     0.8520    -0.1010 hn         1 IW5       0.428800
     19 HNAB        -0.3660    -0.8530    -0.3740 hn         1 IW5       0.428800
     20 HNAC         9.7680    -2.0020    -1.4760 hn         1 IW5       0.436300
     21 HNAD         9.2660    -0.4930    -2.1630 hn         1 IW5       0.436300
     22 HAE          5.1070     1.0790     2.7530 ha         1 IW5       0.142000
     23 HAF          5.6010    -1.5420     1.7270 ha         1 IW5       0.151000
     24 HAG          2.4090     0.0040    -1.0830 ha         1 IW5       0.137500
     25 HAH          0.2670    -0.0220     2.6260 ha         1 IW5       0.137500
     26 HAI          4.5440     0.0050     0.1400 ha         1 IW5       0.135500
     27 HAJ          2.3940    -0.0200     3.8640 ha         1 IW5       0.135500
     28 HAK          8.3070    -1.9230     2.7780 ha         1 IW5       0.154000
     29 HAL          7.0370     1.7020     0.9010 ha         1 IW5       0.154000
     30 NAB          9.4850    -1.0490    -1.3610 nv         1 IW5      -0.917200
@<TRIPOS>BOND
     1    12     1 1
     2     1    18 1
     3     1    19 1
     4    30    15 1
     5    30    20 1
     6    30    21 1
     7     2    13 1
     8     3    14 1
     9     5     4 2
    10     4    16 1
    11     4    22 1
    12    17     5 1
    13     5    23 1
    14     8     6 ar
    15     6    12 ar
    16     6    24 1
    17     9     7 ar
    18     7    12 ar
    19     7    25 1
    20    16     8 ar
    21     8    26 1
    22    16     9 ar
    23     9    27 1
    24    13    10 ar
    25    10    17 ar
    26    10    28 1
    27    14    11 ar
    28    11    17 ar
    29    11    29 1
    30    15    13 ar
    31    15    14 ar
@<TRIPOS>SUBSTRUCTURE
     1 IW5         1 TEMP              0 ****  ****    0 ROOT
