@<TRIPOS>MOLECULE
IW5
   30    31     1     0     0
SMALL
bcc


@<TRIPOS>ATOM
      1 NAA          0.0000     0.0000     0.0000 nv         1 IW5      -0.562200
      2 BrAC         9.8740     3.5050     2.4800 br         1 IW5      -0.131600
      3 BrAD         4.7870     6.0880     1.6960 br         1 IW5      -0.131600
      4 CAE          4.8730    -0.0160     2.8400 ce         1 IW5      -0.078200
      5 CAF          5.8520     0.7940     2.4970 cf         1 IW5      -0.075200
      6 CAG          2.4120     0.0000     0.0000 ca         1 IW5      -0.116000
      7 CAH          1.2070    -0.0170     2.0880 ca         1 IW5      -0.116000
      8 CAI          3.6080     0.0000     0.6850 ca         1 IW5      -0.086000
      9 CAJ          2.3980    -0.0110     2.7810 ca         1 IW5      -0.086000
     10 CAK          7.3880     2.1640     1.8490 ca         1 IW5      -0.012500
     11 CAL          5.2710     3.2410     1.5160 ca         1 IW5      -0.012500
     12 CAM          1.2090    -0.0060     0.6980 ca         1 IW5       0.028600
     13 CAN          7.9710     3.3920     2.1170 ca         1 IW5      -0.042900
     14 CAO          5.8530     4.4690     1.7840 ca         1 IW5      -0.042900
     15 CAP          7.2030     4.5450     2.0850 ca         1 IW5       0.104600
     16 CAQ          3.6100    -0.0050     2.0840 ca         1 IW5      -0.063800
     17 CAR          6.0380     2.0890     1.5480 ca         1 IW5      -0.122800
     18 HNAA        -0.4280    -0.8640    -0.2670 hn         1 IW5       0.272300
     19 HNAB        -0.4280     0.8690    -0.2530 hn         1 IW5       0.272300
     20 HNAC         6.8330     6.2610     3.3000 hn         1 IW5       0.279300
     21 HNAD         8.3720     5.5160     3.5850 hn         1 IW5       0.279300
     22 HAE          5.0790    -0.8220     3.5340 ha         1 IW5       0.114000
     23 HAF          6.7820     0.7850     3.0530 ha         1 IW5       0.100000
     24 HAG          2.4090     0.0040    -1.0830 ha         1 IW5       0.107500
     25 HAH          0.2670    -0.0220     2.6260 ha         1 IW5       0.107500
     26 HAI          4.5440     0.0050     0.1400 ha         1 IW5       0.109000
     27 HAJ          2.3940    -0.0200     3.8640 ha         1 IW5       0.109000
     28 HAK          8.0010     1.2720     1.8120 ha         1 IW5       0.125500
     29 HAL          4.2310     3.1900     1.2140 ha         1 IW5       0.125500
     30 NAB          7.4940     5.5350     3.1050 nv         1 IW5      -0.454200
@<TRIPOS>BOND
     1     1    12 1   
     2     1    18 1   
     3     1    19 1   
     4     2    13 1   
     5     3    14 1   
     6     4     5 2   
     7     4    16 1   
     8     4    22 1   
     9     5    17 1   
    10     5    23 1   
    11     6     8 ar  
    12     6    12 ar  
    13     6    24 1   
    14     7     9 ar  
    15     7    12 ar  
    16     7    25 1   
    17     8    16 ar  
    18     8    26 1   
    19     9    16 ar  
    20     9    27 1   
    21    10    13 ar  
    22    10    17 ar  
    23    10    28 1   
    24    11    14 ar  
    25    11    17 ar  
    26    11    29 1   
    27    13    15 ar  
    28    14    15 ar  
    29    15    30 1   
    30    20    30 1   
    31    21    30 1   
@<TRIPOS>SUBSTRUCTURE
     1 IW5         1 TEMP              0 ****  ****    0 ROOT
