@<TRIPOS>MOLECULE
molecule
   36    37     1     0     0
SMALL
bcc


@<TRIPOS>ATOM
      1 CAA          0.0000     0.0000     0.0000 c3         1 IW6       0.128200
      2 CAB          5.9900     0.0020     3.9400 c3         1 IW6       0.128200
      3 NAC          8.3520     0.8880    -4.8070 nv         1 IW6      -0.981200
      4 BrAD         9.2400     3.0750    -2.8570 br         1 IW6      -0.086600
      5 BrAE         6.1920    -1.2810    -4.8610 br         1 IW6      -0.086600
      6 CAF          5.2470     0.8930    -0.0950 ce         1 IW6      -0.112200
      7 CAH          1.9190     0.0010     3.6070 ca         1 IW6      -0.048000
      8 CAI          1.2940     0.0000     2.3730 ca         1 IW6      -0.258000
      9 CAJ          3.3000     0.0010     3.6920 ca         1 IW6      -0.258000
     10 CAK          7.0910     1.8200    -1.4850 ca         1 IW6      -0.087000
     11 CAL          5.7930    -0.0340    -2.3380 ca         1 IW6      -0.087000
     12 OAM          1.4290     0.0000     0.0000 os         1 IW6      -0.320900
     13 CAO          6.0570     0.8930    -1.3260 ca         1 IW6      -0.049800
     14 CAP          7.5850     0.8890    -3.6400 ca         1 IW6       0.204600
     15 CAQ          7.8460     1.8160    -2.6370 ca         1 IW6      -0.031400
     16 CAR          6.5520    -0.0320    -3.4880 ca         1 IW6      -0.031400
     17 CAS          3.4450     0.0010     1.2860 ca         1 IW6      -0.125800
     18 CAT          2.0460     0.0010     1.2100 ca         1 IW6       0.184100
     19 CAU          4.0690     0.0020     2.5410 ca         1 IW6       0.184100
     20 HAA         -0.3610    -0.8850     0.5110 h1         1 IW6       0.043533
     21 HAAA        -0.3610     0.8840     0.5110 h1         1 IW6       0.043533
     22 HAAB        -0.3610     0.0000    -1.0210 h1         1 IW6       0.043533
     23 HAB          5.6640    -0.8830     4.4730 h1         1 IW6       0.043533
     24 HABA         5.6590     0.8860     4.4700 h1         1 IW6       0.043533
     25 HABB         7.0710     0.0040     3.8720 h1         1 IW6       0.043533
     26 HNAC         8.0710     1.4440    -5.5910 hn         1 IW6       0.438800
     27 HNAA         9.1820     0.3320    -4.8600 hn         1 IW6       0.438800
     28 HAF          5.4530     1.6120     0.6880 ha         1 IW6       0.142000
     29 HAG          4.0480    -0.7190    -0.7280 ha         1 IW6       0.138000
     30 HAH          1.3240     0.0000     4.5120 ha         1 IW6       0.132000
     31 HAI          0.2120    -0.0000     2.3160 ha         1 IW6       0.137000
     32 HAJ          3.7800     0.0020     4.6620 ha         1 IW6       0.137000
     33 HAK          7.2680     2.5690    -0.7230 ha         1 IW6       0.150500
     34 HAL          5.0250    -0.7860    -2.1980 ha         1 IW6       0.150500
     35 CAG          4.2530     0.0010     0.0560 cf         1 IW6      -0.073200
     36 OAN          5.4250     0.0010     2.6270 os         1 IW6      -0.320900
@<TRIPOS>BOND
     1     1    12 1
     2     1    20 1
     3     1    21 1
     4     1    22 1
     5     2    36 1
     6     2    23 1
     7     2    24 1
     8     2    25 1
     9    14     3 1
    10     3    26 1
    11     3    27 1
    12    15     4 1
    13    16     5 1
    14    35     6 2
    15     6    13 1
    16     6    28 1
    17    17    35 1
    18    35    29 1
    19     7     8 ar
    20     7     9 ar
    21     7    30 1
    22     8    18 ar
    23     8    31 1
    24     9    19 ar
    25     9    32 1
    26    13    10 ar
    27    10    15 ar
    28    10    33 1
    29    13    11 ar
    30    11    16 ar
    31    11    34 1
    32    18    12 1
    33    19    36 1
    34    15    14 ar
    35    16    14 ar
    36    18    17 ar
    37    19    17 ar
@<TRIPOS>SUBSTRUCTURE
     1 IW6         1 TEMP              0 ****  ****    0 ROOT
