@<TRIPOS>MOLECULE
IW6
   36    39     1     0     0
SMALL
bcc


@<TRIPOS>ATOM
      1 CAA          0.0000     0.0000     0.0000 c3         1 IW6       0.052000
      2 CAB          5.9900     0.0020     3.9400 c3         1 IW6       0.052000
      3 NAC          8.3520     0.8880    -4.8070 n8         1 IW6      -0.051000
      4 BrAD         9.2400     3.0750    -2.8570 br         1 IW6       0.014000
      5 BrAE         6.1920    -1.2810    -4.8610 br         1 IW6       0.014000
      6 CAF          5.2470     0.8930    -0.0950 c2         1 IW6      -0.087000
      7 CAH          1.9190     0.0010     3.6070 c2         1 IW6       0.004000
      8 CAI          1.2940     0.0000     2.3730 c2         1 IW6      -0.253000
      9 CAJ          3.3000     0.0010     3.6920 c2         1 IW6      -0.253000
     10 CAK          7.0910     1.8200    -1.4850 c2         1 IW6      -0.176500
     11 CAL          5.7930    -0.0340    -2.3380 c2         1 IW6      -0.176500
     12 OAM          1.4290     0.0000     0.0000 os         1 IW6      -0.167000
     13 CAO          6.0570     0.8930    -1.3260 c3         1 IW6       0.107000
     14 CAP          7.5850     0.8890    -3.6400 c2         1 IW6      -0.081000
     15 CAQ          7.8460     1.8160    -2.6370 c2         1 IW6      -0.064500
     16 CAR          6.5520    -0.0320    -3.4880 c2         1 IW6      -0.064500
     17 CAS          3.4450     0.0010     1.2860 c3         1 IW6      -0.114000
     18 CAT          2.0460     0.0010     1.2100 c2         1 IW6       0.140500
     19 CAU          4.0690     0.0020     2.5410 c2         1 IW6       0.140500
     20 HAA         -0.3610     0.0000    -1.0210 h1         1 IW6       0.040667
     21 HAAA        -0.3610     0.8840     0.5110 h1         1 IW6       0.040667
     22 HAAB        -0.3610    -0.8850     0.5100 h1         1 IW6       0.040667
     23 HAB          7.0710     0.0040     3.8670 h1         1 IW6       0.040667
     24 HABA         5.6680    -0.8720     4.4940 h1         1 IW6       0.040667
     25 HABB         5.6610     0.8970     4.4530 h1         1 IW6       0.040667
     26 HNAC         8.0720     1.4440    -5.5910 hn         1 IW6       0.072500
     27 HNAA         9.1820     0.3310    -4.8600 hn         1 IW6       0.072500
     28 HAF          4.9240     1.3130    -1.0400 DU         1 IW6       0.050000
     29 HAG          3.4550     0.7040     0.2630 DU         1 IW6       0.099000
     30 HAH          1.3240     0.0000     4.5120 ha         1 IW6       0.101000
     31 HAI          0.2120    -0.0000     2.3160 ha         1 IW6       0.127000
     32 HAJ          3.7800     0.0020     4.6620 ha         1 IW6       0.127000
     33 HAK          7.3280     2.5090    -0.6840 ha         1 IW6       0.135000
     34 HAL          5.0280    -0.7880    -2.1960 ha         1 IW6       0.135000
     35 CAG          4.2530     0.0010     0.0560 c2         1 IW6      -0.031000
     36 OAN          5.4250     0.0010     2.6270 os         1 IW6      -0.167000
@<TRIPOS>BOND
     1     1    12 1   
     2     1    20 1   
     3     1    21 1   
     4     1    22 1   
     5     2    23 1   
     6     2    24 1   
     7     2    25 1   
     8     2    36 1   
     9     3    14 1   
    10     3    26 1   
    11     3    27 1   
    12     4    15 1   
    13     5    16 1   
    14     6    13 1   
    15     6    28 1   
    16     6    35 1   
    17     7     8 1   
    18     7     9 1   
    19     7    30 1   
    20     8    18 1   
    21     8    31 1   
    22     9    19 1   
    23     9    32 1   
    24    10    13 1   
    25    10    15 1   
    26    10    33 1   
    27    11    13 1   
    28    11    16 1   
    29    11    34 1   
    30    12    18 1   
    31    13    28 1   
    32    14    15 1   
    33    14    16 1   
    34    17    18 1   
    35    17    19 1   
    36    17    29 1   
    37    17    35 1   
    38    19    36 1   
    39    29    35 1   
@<TRIPOS>SUBSTRUCTURE
     1 IW6         1 TEMP              0 ****  ****    0 ROOT
