@<TRIPOS>MOLECULE
IW7
   40    40     1     0     0
SMALL
bcc


@<TRIPOS>ATOM
      1 O5           0.0000     0.0000     0.0000 o          1 IW7      -0.513300
      2 S1           1.4210     0.0000     0.0000 sy         1 IW7       0.917200
      3 O6           2.1970     0.0000     1.1900 o          1 IW7      -0.513300
      4 N7           1.8890    -1.3330    -0.8640 nz         1 IW7      -0.135500
      5 C7           1.9180     1.4190    -0.9180 ca         1 IW7      -0.268500
      6 C8           1.0590     1.9730    -1.8490 ca         1 IW7      -0.006000
      7 C9           1.4420     3.0840    -2.5720 ca         1 IW7      -0.095000
      8 C10          2.7020     3.6480    -2.3620 ca         1 IW7       0.102400
      9 C17          3.1190     4.8380    -3.1310 c          1 IW7       0.933200
     10 O18          2.3420     5.3020    -4.1290 o          1 IW7      -0.816300
     11 O17          4.1630     5.3990    -2.8640 o          1 IW7      -0.816300
     12 C12          3.1660     1.9760    -0.7010 ca         1 IW7       0.084000
     13 C11          3.5640     3.0850    -1.4210 ca         1 IW7      -0.153500
     14 S13          5.1570     3.7890    -1.1480 sy         1 IW7       1.045200
     15 O15          5.7440     3.0540    -0.0820 o          1 IW7      -0.585800
     16 O14          5.7620     3.9190    -2.4270 o          1 IW7      -0.585800
     17 N16          4.9220     5.3260    -0.5820 n7         1 IW7      -0.546100
     18 C19          4.2730     5.5390     0.7150 c3         1 IW7       0.220800
     19 C20          4.5220     6.9750     1.1800 c3         1 IW7      -0.039400
     20 C21          3.8440     7.1970     2.5340 c3         1 IW7      -0.025400
     21 C29          4.0930     8.6320     3.0000 c3         1 IW7      -0.028400
     22 C30          3.4160     8.8540     4.3540 c3         1 IW7       0.006900
     23 H7A          1.6250    -2.1610    -0.3680 hn         1 IW7       0.308800
     24 H7B          1.4430    -1.3240    -1.7590 hn         1 IW7       0.308800
     25 H8           0.0810     1.5340    -2.0100 ha         1 IW7       0.109000
     26 H12          3.8350     1.5380     0.0290 ha         1 IW7       0.136000
     27 H9           0.7670     3.5170    -3.3000 ha         1 IW7       0.158000
     28 H16          5.2640     6.1090    -1.1040 hn         1 IW7       0.389800
     29 H191         4.6820     4.8480     1.4410 h1         1 IW7       0.002700
     30 H192         3.2070     5.3710     0.6170 h1         1 IW7       0.002700
     31 H201         5.5880     7.1430     1.2780 hc         1 IW7       0.024200
     32 H202         4.1130     7.6670     0.4540 hc         1 IW7       0.024200
     33 H211         2.7790     7.0290     2.4360 hc         1 IW7       0.012200
     34 H212         4.2540     6.5050     3.2610 hc         1 IW7       0.012200
     35 H291         3.6840     9.3240     2.2730 hc         1 IW7       0.014200
     36 H292         5.1590     8.8010     3.0980 hc         1 IW7       0.014200
     37 H301         3.5990     9.8680     4.6870 hc         1 IW7      -0.001633
     38 H302         3.8190     8.1570     5.0780 hc         1 IW7      -0.001633
     39 H303         2.3490     8.6940     4.2540 hc         1 IW7      -0.001633
     40 H73          2.8810    -1.3150    -0.9930 hn         1 IW7       0.308800
@<TRIPOS>BOND
     1     1     2 2   
     2     2     3 2   
     3     2     4 1   
     4     2     5 1   
     5     4    23 1   
     6     4    24 1   
     7     4    40 1   
     8     5     6 ar  
     9     5    12 ar  
    10     6     7 ar  
    11     6    25 1   
    12     7     8 ar  
    13     7    27 1   
    14     8     9 1   
    15     8    13 ar  
    16     9    10 1   
    17     9    11 1   
    18    12    13 ar  
    19    12    26 1   
    20    13    14 1   
    21    14    15 2   
    22    14    16 2   
    23    14    17 1   
    24    17    18 1   
    25    17    28 1   
    26    18    19 1   
    27    18    29 1   
    28    18    30 1   
    29    19    20 1   
    30    19    31 1   
    31    19    32 1   
    32    20    21 1   
    33    20    33 1   
    34    20    34 1   
    35    21    22 1   
    36    21    35 1   
    37    21    36 1   
    38    22    37 1   
    39    22    38 1   
    40    22    39 1   
@<TRIPOS>SUBSTRUCTURE
     1 IW7         1 TEMP              0 ****  ****    0 ROOT
