@<TRIPOS>MOLECULE
molecule
   62    65     1     0     0
SMALL
bcc


@<TRIPOS>ATOM
      1 C01          0.0000     0.0000     0.0000 ca         1 IW8      -0.282500
      2 C02          1.3880     0.0000     0.0000 ca         1 IW8       0.042100
      3 C03          2.0840     0.0000     1.1900 ca         1 IW8      -0.077000
      4 C04          1.3860    -0.0000     2.3980 ca         1 IW8      -0.056800
      5 C05         -0.0200    -0.0000     2.3960 ca         1 IW8      -0.005400
      6 C06         -0.7020     0.0050     1.1860 ca         1 IW8      -0.003000
      7 C07          1.7930    -0.0010     3.8070 cc         1 IW8      -0.169200
      8 C08          0.6720    -0.0010     4.5430 cd         1 IW8      -0.063400
      9 N01         -0.4280     0.0030     3.7170 n          1 IW8      -0.224200
     10 Br           2.3290     0.0010    -1.6400 br         1 IW8      -0.071100
     11 S           -0.8730    -0.0000    -1.5310 sy         1 IW8       1.421200
     12 N02         -0.6200    -1.4750    -2.2390 n3         1 IW8      -0.812500
     13 O01         -2.2540     0.0580    -1.2050 o          1 IW8      -0.625300
     14 O02         -0.2280     0.9580    -2.3600 o          1 IW8      -0.625300
     15 C09         -1.7100     0.0040     4.1350 c          1 IW8       0.665100
     16 O03         -2.6110     0.0080     3.3240 o          1 IW8      -0.545100
     17 C10         -2.0230     0.0010     5.6090 c3         1 IW8      -0.170100
     18 C11         -1.4220    -2.6420    -1.8450 c3         1 IW8       0.233300
     19 C12         -0.4760    -3.7810    -1.4540 c3         1 IW8      -0.094900
     20 C13          0.4980    -4.0480    -2.6030 c3         1 IW8      -0.139700
     21 C14          1.3340    -2.7940    -2.8670 c3         1 IW8      -0.094900
     22 C15          0.4050    -1.6430    -3.2780 c3         1 IW8       0.233300
     23 C16          1.4070    -5.1920    -2.2360 c          1 IW8       0.669100
     24 N            2.2090    -5.7430    -3.1690 n          1 IW8      -0.370000
     25 O            1.4200    -5.6150    -1.0990 o          1 IW8      -0.596100
     26 C17          3.0560    -6.8020    -2.8260 ca         1 IW8       0.061600
     27 C18          2.1920    -5.2320    -4.5420 c3         1 IW8       0.089000
     28 C19          3.4240    -4.3560    -4.7750 c3         1 IW8      -0.121100
     29 C20          3.9860    -7.2720    -3.7430 ca         1 IW8      -0.177000
     30 C21          4.8220    -8.3190    -3.4030 ca         1 IW8      -0.064300
     31 C22          4.7300    -8.8980    -2.1500 ca         1 IW8      -0.153000
     32 C23          3.8050    -8.4310    -1.2350 ca         1 IW8      -0.107000
     33 C24          2.9710    -7.3820    -1.5670 ca         1 IW8      -0.174000
     34 C            5.8320    -8.8310    -4.3970 c3         1 IW8      -0.045800
     35 H1           3.1680     0.0000     1.1870 ha         1 IW8       0.151000
     36 H2          -1.7850     0.0050     1.1740 ha         1 IW8       0.188000
     37 H3           2.8090    -0.0030     4.1830 ha         1 IW8       0.166000
     38 H4           0.6390    -0.0030     5.6250 h4         1 IW8       0.177000
     39 H5          -1.5980     0.8840     6.0700 hc         1 IW8       0.070700
     40 H6          -3.0970     0.0010     5.7500 hc         1 IW8       0.070700
     41 H7          -1.5990    -0.8850     6.0660 hc         1 IW8       0.070700
     42 H8          -2.0470    -2.3830    -0.9990 h1         1 IW8       0.062950
     43 H9          -2.0400    -2.9540    -2.6780 h1         1 IW8       0.062950
     44 H10          0.0810    -3.4990    -0.5680 hc         1 IW8       0.064700
     45 H11         -1.0530    -4.6760    -1.2550 hc         1 IW8       0.064700
     46 H12         -0.0620    -4.3000    -3.4960 hc         1 IW8       0.065700
     47 H13          2.0390    -2.9920    -3.6650 hc         1 IW8       0.064700
     48 H14          1.8680    -2.5220    -1.9650 hc         1 IW8       0.064700
     49 H15          0.9800    -0.7290    -3.3720 h1         1 IW8       0.062950
     50 H16         -0.0700    -1.8790    -4.2220 h1         1 IW8       0.062950
     51 H17          1.2960    -4.6430    -4.6980 h1         1 IW8       0.059200
     52 H18          2.2030    -6.0630    -5.2370 h1         1 IW8       0.059200
     53 H19          3.1210    -3.4200    -5.2280 hc         1 IW8       0.048033
     54 H20          4.1130    -4.8700    -5.4340 hc         1 IW8       0.048033
     55 H21          3.9110    -4.1580    -3.8270 hc         1 IW8       0.048033
     56 H22          4.0580    -6.8190    -4.7240 ha         1 IW8       0.130000
     57 H23          5.3840    -9.7200    -1.8860 ha         1 IW8       0.127000
     58 H24          3.7380    -8.8850    -0.2530 ha         1 IW8       0.132000
     59 H25          2.2470    -7.0170    -0.8490 ha         1 IW8       0.204000
     60 H26          6.2520    -9.7620    -4.0380 hc         1 IW8       0.042033
     61 H27          5.3470    -8.9980    -5.3510 hc         1 IW8       0.042033
     62 H28          6.6220    -8.1000    -4.5170 hc         1 IW8       0.042033
@<TRIPOS>BOND
     1    34    30 1
     2    31    30 ar
     3    31    32 ar
     4    30    29 ar
     5    28    27 1
     6    29    26 ar
     7    32    33 ar
     8    33    26 ar
     9    26    24 1
    10    27    24 1
    11    24    23 1
    12    17    15 1
    13    16    15 2
    14    23    20 1
    15    23    25 2
    16    15     9 1
    17    20    19 1
    18    20    21 1
    19    19    18 1
    20     9     8 1
    21     9     5 1
    22    18    12 1
    23    21    22 1
    24     8     7 2
    25    22    12 1
    26    12    11 1
    27     5     6 ar
    28     5     4 ar
    29     6     1 ar
    30     7     4 1
    31     4     3 ar
    32     1    11 1
    33     1     2 ar
    34    11    13 2
    35    11    14 2
    36     3     2 ar
    37     2    10 1
    38     3    35 1
    39     6    36 1
    40     7    37 1
    41     8    38 1
    42    17    39 1
    43    17    40 1
    44    17    41 1
    45    18    42 1
    46    18    43 1
    47    19    44 1
    48    19    45 1
    49    20    46 1
    50    21    47 1
    51    21    48 1
    52    22    49 1
    53    22    50 1
    54    27    51 1
    55    27    52 1
    56    28    53 1
    57    28    54 1
    58    28    55 1
    59    29    56 1
    60    31    57 1
    61    32    58 1
    62    33    59 1
    63    34    60 1
    64    34    61 1
    65    34    62 1
@<TRIPOS>SUBSTRUCTURE
     1 IW8         1 TEMP              0 ****  ****    0 ROOT
