@<TRIPOS>MOLECULE
IWD
   23    23     1     0     0
SMALL
bcc


@<TRIPOS>ATOM
      1 N1         -0.3920    0.3630    0.4800 n         1 IWD     -0.379000
      2 C2          0.3980    1.4140    1.0140 c         1 IWD      0.810500
      3 O2          0.2660    2.5900    0.5890 o         1 IWD     -0.705500
      4 N3          1.3400    1.1130    1.9940 n         1 IWD     -0.575500
      5 C4          1.5640   -0.1980    2.4780 c         1 IWD      0.727700
      6 O4          2.4210   -0.3390    3.3600 o         1 IWD     -0.571500
      7 C5          0.7450   -1.2530    1.8660 cc        1 IWD     -0.189400
      8 I5          0.9870   -3.1700    2.4180 i         1 IWD     -0.046800
      9 C6         -0.1870   -0.9320    0.9230 cd        1 IWD      0.092600
     10 C7         -1.4880    0.6780   -0.4180 c3        1 IWD      0.086000
     11 C8         -1.0860    0.9760   -1.8610 c3        1 IWD     -0.111500
     12 N8         -0.5190    2.3370   -2.0550 n4        1 IWD     -0.824600
     13 C9         -2.4050    0.7970   -2.7940 c         1 IWD      0.946600
     14 O91        -3.0560   -0.2330   -2.5600 o         1 IWD     -0.747300
     15 O92        -2.5680    1.7130   -3.6320 o         1 IWD     -0.747300
     16 H3          1.8640    1.8730    2.3780 hn        1 IWD      0.360500
     17 H6         -0.8370   -1.6990    0.4480 h4        1 IWD      0.193000
     18 H71        -2.1910   -0.2120   -0.4690 h1        1 IWD      0.110700
     19 H72        -2.0610    1.5480    0.0180 h1        1 IWD      0.110700
     20 H8         -0.3440    0.2260   -2.2470 hx        1 IWD      0.097700
     21 H81        -0.7570    2.9410   -1.2600 hn        1 IWD      0.453800
     22 H82         0.4920    2.3100   -2.1480 hn        1 IWD      0.453800
     23 H83        -0.9550    2.7190   -2.9220 hn        1 IWD      0.453800
@<TRIPOS>BOND
     1    1    2 1
     2    1    9 1
     3    1   10 1
     4    2    3 2
     5    2    4 1
     6    4    5 1
     7    4   16 1
     8    5    6 2
     9    5    7 1
    10    7    8 1
    11    7    9 2
    12    9   17 1
    13   10   11 1
    14   10   18 1
    15   10   19 1
    16   11   12 1
    17   11   13 1
    18   11   20 1
    19   12   21 1
    20   12   22 1
    21   12   23 1
    22   13   14 1
    23   13   15 1
@<TRIPOS>SUBSTRUCTURE
     1 IWD         1 TEMP              0 ****  ****    0 ROOT
