@<TRIPOS>MOLECULE
molecule
   36    37     1     0     0
SMALL
bcc


@<TRIPOS>ATOM
      1 C1           0.0000     0.0000     0.0000 c3         1 IWH      -0.055800
      2 N1           6.2680    -1.3590    -0.2430 n          1 IWH      -0.276000
      3 C2           1.5070     0.0000     0.0000 ca         1 IWH      -0.047300
      4 N2           7.8670    -4.6620    -3.3540 nz         1 IWH      -0.672400
      5 O2           7.3030    -2.6230    -4.0320 o          1 IWH      -0.459100
      6 C3           2.1980     0.0000     1.1970 ca         1 IWH      -0.127000
      7 C4           3.5810     0.0000     1.1960 ca         1 IWH      -0.079000
      8 C5           4.2710    -0.0010    -0.0020 ca         1 IWH      -0.155300
      9 C6           3.5800    -0.0030    -1.1980 ca         1 IWH      -0.071300
     10 C7           2.1970    -0.0070    -1.1970 ca         1 IWH      -0.128000
     11 C8           4.3330    -0.0030    -2.5040 c3         1 IWH      -0.057800
     12 C9           5.7780     0.0010    -0.0010 c3         1 IWH       0.128300
     13 C10          6.5950    -1.7340    -1.4940 cc         1 IWH       0.157600
     14 C11          7.0580    -3.0090    -1.7430 cd         1 IWH      -0.358200
     15 C12          7.1880    -3.9260    -0.6720 cd         1 IWH      -0.090000
     16 C13          6.8510    -3.5260     0.5820 cc         1 IWH      -0.193200
     17 C14          6.3880    -2.2130     0.7910 c          1 IWH       0.674700
     18 C15          7.4150    -3.4140    -3.1160 c          1 IWH       0.521300
     19 H1          -0.3610    -0.7820    -0.6570 hc         1 IWH       0.054033
     20 H1A         -0.3610     0.9600    -0.3480 hc         1 IWH       0.054033
     21 H1B         -0.3610    -0.1790     1.0060 hc         1 IWH       0.054033
     22 HN2          8.6920    -4.8270    -2.8120 hn         1 IWH       0.476467
     23 HN2A         7.1630    -5.3260    -3.1000 hn         1 IWH       0.476467
     24 H3           1.6570     0.0010     2.1360 ha         1 IWH       0.148000
     25 H4           4.1240     0.0010     2.1330 ha         1 IWH       0.152000
     26 H7           1.6550    -0.0080    -2.1350 ha         1 IWH       0.142000
     27 H8           3.7240     0.4560    -3.2720 hc         1 IWH       0.042367
     28 H8A          5.2530     0.5570    -2.3900 hc         1 IWH       0.042367
     29 H8B          4.5640    -1.0230    -2.7870 hc         1 IWH       0.042367
     30 H9           6.1390     0.6580    -0.7830 h1         1 IWH       0.091700
     31 H9A          6.1390     0.3490     0.9590 h1         1 IWH       0.091700
     32 H10          6.5080    -1.0250    -2.3080 h4         1 IWH       0.199000
     33 H12          7.3720    -4.9740    -0.8760 ha         1 IWH       0.117000
     34 H13          6.8120    -4.2480     1.3890 ha         1 IWH       0.191000
     35 O1           6.0840    -1.8490     1.9150 o          1 IWH      -0.562500
     36 H23          8.0850    -4.7570    -4.3260 hn         1 IWH       0.476467
@<TRIPOS>BOND
     1     3     1 1
     2     1    19 1
     3     1    20 1
     4     1    21 1
     5    13     2 1
     6    17     2 1
     7     2    12 1
     8    17    35 2
     9     6     3 ar
    10     3    10 ar
    11     4    18 1
    12     4    22 1
    13     4    23 1
    14    18     5 2
    15     7     6 ar
    16     6    24 1
    17     7     8 ar
    18     7    25 1
    19    12     8 1
    20     8     9 ar
    21     9    10 ar
    22     9    11 1
    23    10    26 1
    24    11    27 1
    25    11    28 1
    26    11    29 1
    27    12    30 1
    28    12    31 1
    29    14    13 2
    30    13    32 1
    31    18    14 1
    32    15    14 1
    33    15    16 2
    34    15    33 1
    35    16    17 1
    36    16    34 1
    37    36     4 1
@<TRIPOS>SUBSTRUCTURE
     1 IWH         1 TEMP              0 ****  ****    0 ROOT
