@<TRIPOS>MOLECULE
molecule
   50    55     1     0     0
SMALL
bcc


@<TRIPOS>ATOM
      1 CAF          0.0000     0.0000     0.0000 ca         1 IWR       0.399600
      2 NAG          1.3350     0.0000     0.0000 nb         1 IWR      -0.692000
      3 CAH          2.0170     0.0000     1.1200 ca         1 IWR       0.429200
      4 CAI          1.3860     0.0010     2.3610 ca         1 IWR      -0.257300
      5 CAJ          0.0210    -0.0000     2.4330 ca         1 IWR      -0.077000
      6 CAA         -0.7060     0.0000     1.2270 ca         1 IWR      -0.139300
      7 CAB         -2.1110     0.0010     1.2230 ca         1 IWR      -0.133000
      8 CAC         -2.7860     0.0010     0.0410 ca         1 IWR      -0.105000
      9 CAD         -2.1050    -0.0000    -1.1740 ca         1 IWR      -0.126000
     10 CAE         -0.7280     0.0050    -1.2110 ca         1 IWR       0.011300
     11 NAK         -0.0580     0.0040    -2.4350 ns         1 IWR      -0.455100
     12 CAL         -0.5730    -0.6650    -3.4850 c          1 IWR       0.675700
     13 OAM         -1.6610    -1.2000    -3.3900 o          1 IWR      -0.601100
     14 CAN          0.1810    -0.7490    -4.7510 ca         1 IWR      -0.143600
     15 CAS         -0.3510    -1.4410    -5.8400 ca         1 IWR      -0.078000
     16 CAO          0.3560    -1.5160    -7.0190 ca         1 IWR      -0.119500
     17 CAR          1.4300    -0.1290    -4.8630 ca         1 IWR      -0.078000
     18 CAQ          2.1310    -0.2080    -6.0450 ca         1 IWR      -0.119500
     19 CAP          1.6000    -0.9030    -7.1270 ca         1 IWR       0.061600
     20 NAT          2.3150    -0.9820    -8.3250 n          1 IWR      -0.397600
     21 CAW          1.8870    -0.4180    -9.4610 c          1 IWR       0.719000
     22 OBE          0.8590     0.2100    -9.5860 o          1 IWR      -0.573000
     23 CAV          2.8860    -0.6880   -10.5630 c3         1 IWR      -0.158700
     24 CBB          2.2490    -1.7030   -11.5630 c3         1 IWR      -0.032500
     25 CBC          3.5240    -2.5180   -11.9930 c3         1 IWR      -0.084400
     26 CBA          1.5670    -2.7400   -10.6620 c2         1 IWR      -0.183200
     27 CAZ          2.5030    -3.4470   -10.0580 c2         1 IWR      -0.183200
     28 CAY          3.8720    -2.9290   -10.5160 c3         1 IWR      -0.032500
     29 CAU          3.9900    -1.5220    -9.8500 c3         1 IWR      -0.158700
     30 CAX          3.4860    -1.6210    -8.4280 c          1 IWR       0.719000
     31 OBD          4.0530    -2.1930    -7.5220 o          1 IWR      -0.573000
     32 H1           3.0990     0.0010     1.0780 h4         1 IWR       0.021100
     33 H2           1.9760     0.0010     3.2700 ha         1 IWR       0.137000
     34 H3          -0.4860     0.0000     3.3900 ha         1 IWR       0.141000
     35 H4          -2.6560     0.0020     2.1590 ha         1 IWR       0.133000
     36 H5          -3.8700    -0.0030     0.0450 ha         1 IWR       0.136000
     37 H6          -2.6650    -0.0000    -2.1010 ha         1 IWR       0.172000
     38 H7           0.7860     0.5310    -2.5430 hn         1 IWR       0.340500
     39 H8          -1.3200    -1.9190    -5.7580 ha         1 IWR       0.148500
     40 H9          -0.0560    -2.0550    -7.8640 ha         1 IWR       0.146500
     41 H10          1.8450     0.4130    -4.0220 ha         1 IWR       0.148500
     42 H11          3.0990     0.2700    -6.1330 ha         1 IWR       0.146500
     43 H12          3.2650     0.2100   -11.0370 hc         1 IWR       0.099700
     44 H13          1.6520    -1.2880   -12.3660 hc         1 IWR       0.094200
     45 H14          4.2860    -1.8860   -12.4340 hc         1 IWR       0.061700
     46 H15          3.2760    -3.3730   -12.6100 hc         1 IWR       0.061700
     47 H17          0.6510    -3.2190   -10.9840 ha         1 IWR       0.151500
     48 H18          2.3550    -4.5060    -9.8850 ha         1 IWR       0.151500
     49 H20          4.7130    -3.6000   -10.3910 hc         1 IWR       0.094200
     50 H21          4.9780    -1.0850    -9.9310 hc         1 IWR       0.099700
@<TRIPOS>BOND
     1    22    21 2
     2    24    23 1
     3    24    26 1
     4    24    25 1
     5    21    23 1
     6    21    20 1
     7    23    29 1
     8    26    27 2
     9    25    28 1
    10    20    19 1
    11    20    30 1
    12    29    28 1
    13    29    30 1
    14    19    18 ar
    15    19    16 ar
    16    18    17 ar
    17    27    28 1
    18    16    15 ar
    19    17    14 ar
    20    30    31 2
    21    13    12 2
    22    15    14 ar
    23    14    12 1
    24    12    11 1
    25    11    10 1
    26     9    10 ar
    27     9     8 ar
    28    10     1 ar
    29     8     7 ar
    30     1     2 ar
    31     1     6 ar
    32     7     6 ar
    33     2     3 ar
    34     6     5 ar
    35     3     4 ar
    36     5     4 ar
    37     3    32 1
    38     4    33 1
    39     5    34 1
    40     7    35 1
    41     8    36 1
    42     9    37 1
    43    11    38 1
    44    15    39 1
    45    16    40 1
    46    17    41 1
    47    18    42 1
    48    23    43 1
    49    24    44 1
    50    25    45 1
    51    25    46 1
    52    26    47 1
    53    27    48 1
    54    28    49 1
    55    29    50 1
@<TRIPOS>SUBSTRUCTURE
     1 IWR         1 TEMP              0 ****  ****    0 ROOT
