@<TRIPOS>MOLECULE
IWX
   42    44     1     0     0
SMALL
bcc


@<TRIPOS>ATOM
      1 O1           0.0000     0.0000     0.0000 o          1 IWX      -0.633100
      2 C2           1.2130     0.0000     0.0000 c          1 IWX       0.563100
      3 N3           1.8870     0.0000     1.1670 ns         1 IWX      -0.021100
      4 C4           1.1910     0.1150     2.3780 ca         1 IWX      -0.108400
      5 C5          -0.0500     0.7270     2.4080 ca         1 IWX      -0.103000
      6 C6          -0.7400     0.8400     3.6140 cp         1 IWX      -0.026000
      7 C7          -0.1770     0.3390     4.7870 ca         1 IWX      -0.101000
      8 C8           1.0610    -0.2700     4.7550 ca         1 IWX      -0.109000
      9 C9           1.7470    -0.3890     3.5540 ca         1 IWX      -0.003400
     10 N10          3.0010    -1.0060     3.5250 nv         1 IWX      -0.531200
     11 C11         -2.0700     1.4950     3.6510 cp         1 IWX      -0.038000
     12 C12         -2.7610     1.6090     4.8560 ca         1 IWX      -0.074500
     13 C13         -3.9980     2.2190     4.8850 ca         1 IWX      -0.130500
     14 C14         -4.5550     2.7160     3.7180 ca         1 IWX       0.099900
     15 F15         -5.7670     3.3120     3.7490 f          1 IWX      -0.130900
     16 C16         -3.8720     2.6050     2.5170 ca         1 IWX      -0.130500
     17 C17         -2.6310     2.0030     2.4790 ca         1 IWX      -0.074500
     18 C18          1.9670    -0.0050    -1.3060 c3         1 IWX      -0.121700
     19 C19          0.9720    -0.0110    -2.4710 c3         1 IWX      -0.056900
     20 C20          1.7440     0.0650    -3.7910 c3         1 IWX       0.214900
     21 O21          2.5580     1.2390    -3.7990 os         1 IWX      -0.405600
     22 C22          3.5390     1.2760    -2.7600 c3         1 IWX       0.214900
     23 C23          2.8390     1.2500    -1.3990 c3         1 IWX      -0.056900
     24 H1           2.8830    -0.0930     1.1690 hn         1 IWX       0.170500
     25 H2          -0.4850     1.1160     1.4960 ha         1 IWX       0.162000
     26 H3          -0.7120     0.4290     5.7250 ha         1 IWX       0.111000
     27 H4           1.4950    -0.6610     5.6670 ha         1 IWX       0.108000
     28 H5           3.7610    -0.6200     4.0500 hn         1 IWX       0.270300
     29 H6           3.1240    -1.8660     3.0270 hn         1 IWX       0.270300
     30 H7          -2.3260     1.2210     5.7690 ha         1 IWX       0.119500
     31 H8          -4.5360     2.3080     5.8210 ha         1 IWX       0.118000
     32 H9          -4.3100     2.9980     1.6080 ha         1 IWX       0.118000
     33 H10         -2.0980     1.9160     1.5400 ha         1 IWX       0.119500
     34 H11          2.5950    -0.8850    -1.3640 hc         1 IWX       0.037700
     35 H12          0.3140     0.8460    -2.3880 hc         1 IWX       0.032200
     36 H13          0.3910    -0.9240    -2.4450 hc         1 IWX       0.032200
     37 H14          1.0430     0.1070    -4.6160 h1         1 IWX       0.008200
     38 H15          2.3740    -0.8110    -3.8890 h1         1 IWX       0.008200
     39 H16          4.1220     2.1850    -2.8480 h1         1 IWX       0.008200
     40 H17          4.1890     0.4140    -2.8470 h1         1 IWX       0.008200
     41 H18          3.5820     1.2320    -0.6110 hc         1 IWX       0.032200
     42 H19          2.2160     2.1310    -1.2960 hc         1 IWX       0.032200
@<TRIPOS>BOND
     1     1     2 2   
     2     2     3 1   
     3     2    18 1   
     4     3     4 1   
     5     3    24 1   
     6     4     5 ar  
     7     4     9 ar  
     8     5     6 ar  
     9     5    25 1   
    10     6     7 ar  
    11     6    11 1   
    12     7     8 ar  
    13     7    26 1   
    14     8     9 ar  
    15     8    27 1   
    16     9    10 1   
    17    10    28 1   
    18    10    29 1   
    19    11    12 ar  
    20    11    17 ar  
    21    12    13 ar  
    22    12    30 1   
    23    13    14 ar  
    24    13    31 1   
    25    14    15 1   
    26    14    16 ar  
    27    16    17 ar  
    28    16    32 1   
    29    17    33 1   
    30    18    19 1   
    31    18    23 1   
    32    18    34 1   
    33    19    20 1   
    34    19    35 1   
    35    19    36 1   
    36    20    21 1   
    37    20    37 1   
    38    20    38 1   
    39    21    22 1   
    40    22    23 1   
    41    22    39 1   
    42    22    40 1   
    43    23    41 1   
    44    23    42 1   
@<TRIPOS>SUBSTRUCTURE
     1 IWX         1 TEMP              0 ****  ****    0 ROOT
