@<TRIPOS>MOLECULE
IX1
   49    51     1     0     0
SMALL
bcc


@<TRIPOS>ATOM
      1 C1          0.2520   -0.8670    0.8730 ca        1 IX1     -0.105000
      2 C2          1.4020   -0.0970    0.6340 ca        1 IX1     -0.102500
      3 C3          1.5990    1.0890    1.3550 ca        1 IX1     -0.095000
      4 C4          0.6670    1.5020    2.3160 ca        1 IX1     -0.091800
      5 C5         -0.4810    0.7300    2.5350 ca        1 IX1     -0.129000
      6 C6         -0.6830   -0.4450    1.8140 ca        1 IX1     -0.140000
      7 C7          2.3690   -0.5250   -0.3440 cc        1 IX1      0.270200
      8 O12         3.6640    0.0500   -0.2650 os        1 IX1     -0.162100
      9 N13         4.4400   -0.4550   -1.2160 nc        1 IX1     -0.366300
     10 C14         3.7440   -1.3370   -1.9460 cd        1 IX1      0.298800
     11 C15         2.3720   -1.4080   -1.4100 cd        1 IX1     -0.306900
     12 C16         4.2450   -2.1740   -3.1260 c         1 IX1      0.831100
     13 O1          5.3290   -2.7890   -2.9830 o         1 IX1     -0.800300
     14 O2          3.4970   -2.2090   -4.1400 o         1 IX1     -0.800300
     15 C8          0.9130    2.7380    3.0450 ce        1 IX1     -0.079200
     16 C32         1.9490    1.8310    6.9460 ca        1 IX1      0.203100
     17 C33         2.8830    1.3860    5.9980 ca        1 IX1     -0.234000
     18 C34         4.1700    1.0480    6.4060 ca        1 IX1     -0.034000
     19 C35         4.5470    1.1490    7.7420 ca        1 IX1     -0.258000
     20 C36         3.6130    1.6000    8.6870 ca        1 IX1      0.189100
     21 C37         2.3060    1.9510    8.3070 ca        1 IX1     -0.182600
     22 C38         1.3410    2.4470    9.3020 c         1 IX1      0.683700
     23 O11         1.1970    3.5890    9.7390 o         1 IX1     -0.534000
     24 O13         0.5110    1.4660    9.7820 os        1 IX1     -0.425900
     25 C39        -0.4630    1.8720   10.7420 c3        1 IX1      0.126700
     26 O14         3.9230    1.7140   10.0210 oh        1 IX1     -0.492100
     27 O3          0.6550    2.1890    6.6490 os        1 IX1     -0.324900
     28 C40         0.1950    1.9450    5.3120 c3        1 IX1      0.161600
     29 C41         0.7240    2.9460    4.3530 c2        1 IX1     -0.222200
     30 C9          1.2880   -2.2180   -1.9970 c3        1 IX1      0.181700
     31 O4          0.9380   -3.3370   -1.1920 oh        1 IX1     -0.627800
     32 H1          0.1030   -1.8080    0.3120 ha        1 IX1      0.172000
     33 H3          2.5030    1.6910    1.1630 ha        1 IX1      0.153000
     34 H5         -1.2300    1.0600    3.2700 ha        1 IX1      0.122000
     35 H6         -1.5870   -1.0460    1.9900 ha        1 IX1      0.129000
     36 H8          1.3190    3.5580    2.4220 ha        1 IX1      0.132000
     37 H33         2.6070    1.3140    4.9360 ha        1 IX1      0.164000
     38 H34         4.8990    0.6960    5.6580 ha        1 IX1      0.147000
     39 H35         5.5630    0.8790    8.0580 ha        1 IX1      0.138000
     40 H391        0.0430    2.2850   11.6480 h1        1 IX1      0.045700
     41 H392       -1.1390    2.6420   10.2990 h1        1 IX1      0.045700
     42 H393       -1.0150    0.9290   10.9760 h1        1 IX1      0.045700
     43 H14         4.8530    1.4680   10.1320 ho        1 IX1      0.424000
     44 H401       -0.9210    2.0630    5.4270 h1        1 IX1      0.072200
     45 H402        0.4320    0.8910    5.0050 h1        1 IX1      0.072200
     46 H41         0.9640    3.9250    4.8020 ha        1 IX1      0.139000
     47 H91         1.6010   -2.5600   -3.0270 h1        1 IX1      0.078200
     48 H92         0.3360   -1.6210   -2.0650 h1        1 IX1      0.078200
     49 HO4         1.7210   -3.8980   -1.1420 ho        1 IX1      0.410000
@<TRIPOS>BOND
     1    1    2 ar  
     2    1    6 ar  
     3    1   32 1   
     4    2    3 ar  
     5    2    7 1   
     6    3    4 ar  
     7    3   33 1   
     8    4    5 ar  
     9    4   15 1   
    10    5    6 ar  
    11    5   34 1   
    12    6   35 1   
    13    7    8 1   
    14    7   11 2   
    15    8    9 1   
    16    9   10 2   
    17   10   11 1   
    18   10   12 1   
    19   11   30 1   
    20   12   13 1   
    21   12   14 1   
    22   15   29 2   
    23   15   36 1   
    24   16   17 ar  
    25   16   21 ar  
    26   16   27 1   
    27   17   18 ar  
    28   17   37 1   
    29   18   19 ar  
    30   18   38 1   
    31   19   20 ar  
    32   19   39 1   
    33   20   21 ar  
    34   20   26 1   
    35   21   22 1   
    36   22   23 2   
    37   22   24 1   
    38   24   25 1   
    39   25   40 1   
    40   25   41 1   
    41   25   42 1   
    42   26   43 1   
    43   27   28 1   
    44   28   29 1   
    45   28   44 1   
    46   28   45 1   
    47   29   46 1   
    48   30   31 1   
    49   30   47 1   
    50   30   48 1   
    51   31   49 1   
@<TRIPOS>SUBSTRUCTURE
     1 IX1         1 TEMP              0 ****  ****    0 ROOT
