@<TRIPOS>MOLECULE
IX6
   73    77     1     0     0
SMALL
bcc


@<TRIPOS>ATOM
      1 C1         -1.7310   -0.8450    0.0910 c2        1 IX6     -0.484000
      2 C2         -2.2310   -1.1600   -1.0880 c1        1 IX6      0.261000
      3 C3         -0.2630   -0.6700    0.3790 c3        1 IX6     -0.013000
      4 C4         -0.2100   -0.4080    1.8610 c2        1 IX6     -0.287000
      5 C5         -1.4580   -0.3610    2.4290 c2        1 IX6      0.084000
      6 C6         -2.5330   -0.5680    1.3450 c3        1 IX6      0.143000
      7 C8          1.0970    0.9790    3.3850 c2        1 IX6     -0.511000
      8 C15        -0.8890    1.7280    5.0480 cx        1 IX6     -0.155000
      9 C16         1.1810    3.4500    3.3260 ca        1 IX6     -0.140000
     10 C17         1.6420    2.2010    2.8480 ca        1 IX6      0.074000
     11 C18         1.6900    4.6610    2.8930 ca        1 IX6     -0.122000
     12 C19         2.7000    4.6780    1.9160 ca        1 IX6      0.039000
     13 C21         2.6790    2.2610    1.8760 ca        1 IX6      0.017000
     14 C27         4.1420    8.4650    1.3310 c1        1 IX6      0.220000
     15 O29        -3.4510   -1.5780    1.6800 oh        1 IX6     -0.310000
     16 C34         2.8370   -1.8870    3.1320 c2        1 IX6     -0.234000
     17 C35         3.6540   -2.4380    4.1260 c2        1 IX6      0.098000
     18 C37         4.7460   -2.3460    2.1730 c2        1 IX6      0.021000
     19 C39         5.9340   -2.5670    1.3290 c3        1 IX6     -0.151000
     20 C40         3.4860   -2.7040    5.5530 c3        1 IX6     -0.180000
     21 F41         3.2310    1.1310    1.3500 f         1 IX6     -0.128000
     22 C20         3.1950    3.4830    1.4040 ca        1 IX6     -0.188000
     23 O23         3.1000    5.9330    1.4840 os        1 IX6     -0.226000
     24 C22         4.4340    5.9920    0.9640 c3        1 IX6      0.054000
     25 C26         4.8650    7.4200    0.9530 c2        1 IX6     -0.434000
     26 C28         6.2550    7.6230    0.4560 c3        1 IX6     -0.138000
     27 N7          1.0560   -0.2030    2.5340 n4        1 IX6      0.167000
     28 N38         3.5460   -1.8410    1.9110 n2        1 IX6     -0.125000
     29 O36         4.8750   -2.7320    3.5330 os        1 IX6     -0.124000
     30 O33         0.6190   -2.0520    3.9720 o         1 IX6     -0.218000
     31 C9          0.3430    0.9390    4.6250 cx        1 IX6     -0.594000
     32 S12         1.4620    0.8600    5.9440 s6        1 IX6      2.764000
     33 O30         2.5140    1.7820    5.9090 o         1 IX6     -0.934500
     34 O31         1.8390   -0.4730    6.2140 o         1 IX6     -0.934500
     35 C13         0.3250    1.3800    7.1440 c3        1 IX6     -0.850000
     36 C14        -0.8200    2.1680    6.5030 c3        1 IX6      0.006000
     37 C25        -2.1370    1.8790    7.2020 c3        1 IX6     -0.207000
     38 C10        -1.0070    0.2460    4.7870 cx        1 IX6      0.037000
     39 N11        -1.8180   -0.2600    3.7380 n3        1 IX6     -0.255000
     40 H1         -3.1570    0.3630    1.2280 h1        1 IX6      0.144000
     41 H2          0.3140   -1.5930    0.1090 hc        1 IX6      0.108000
     42 H3          0.1540    0.1950   -0.2000 hc        1 IX6      0.108000
     43 H8          1.7630   -0.0640    1.7900 hn        1 IX6      0.269000
     44 H15        -1.3770    2.4460    4.3660 hc        1 IX6      0.153000
     45 H15A       -1.0880   -0.4480    5.6640 h1        1 IX6      0.144000
     46 H16         0.3930    3.4750    4.0920 ha        1 IX6      0.131000
     47 H18         1.3120    5.6130    3.2920 ha        1 IX6      0.144000
     48 H24        -1.2750    4.2300    5.9700 hc        1 IX6      0.083500
     49 H24A        0.4940    3.8850    6.1990 hc        1 IX6      0.083500
     50 H24B       -0.6000    4.0070    7.6390 hc        1 IX6      0.083500
     51 H27         2.1660    7.8870    2.3590 ha        1 IX6      0.013000
     52 H27A        1.9500    8.0010    1.7230 ha        1 IX6      0.013000
     53 HO29       -2.9630   -2.4050    1.7920 ho        1 IX6      0.222000
     54 H39         6.3020   -1.5860    0.9340 hc        1 IX6      0.114333
     55 H39A        5.6700   -3.2280    0.4660 hc        1 IX6      0.114333
     56 H39B        6.7440   -3.0490    1.9300 hc        1 IX6      0.114333
     57 H40         4.0210   -3.6370    5.8530 hc        1 IX6      0.130333
     58 H40A        3.8910   -1.8380    6.1440 hc        1 IX6      0.130333
     59 H40B        2.3920   -2.7830    5.7900 hc        1 IX6      0.130333
     60 H20         3.9890    3.4670    0.6450 ha        1 IX6      0.142000
     61 H22         4.4280    5.5860   -0.0850 h1        1 IX6      0.087500
     62 H22A        5.1290    5.3830    1.6030 h1        1 IX6      0.087500
     63 H28         6.9750    7.0740    1.1130 hc        1 IX6      0.085000
     64 H28A        6.3460    7.2290   -0.5860 hc        1 IX6      0.085000
     65 H28B        6.5330    8.7060    0.4530 hc        1 IX6      0.085000
     66 H13        -0.0880    0.5020    7.7040 h1        1 IX6      0.154500
     67 H13A        0.8280    2.0220    7.9130 h1        1 IX6      0.154500
     68 H25        -2.4040    0.7990    7.1140 hc        1 IX6      0.083500
     69 H25A       -2.0570    2.1390    8.2850 hc        1 IX6      0.083500
     70 H25B       -2.9550    2.4880    6.7470 hc        1 IX6      0.083500
     71 HN11       -2.7990   -0.2250    3.9230 hn        1 IX6      0.240000
     72 C24        -0.5330    3.6610    6.5790 c3        1 IX6     -0.207000
     73 C32         1.4490   -1.4580    3.2930 c2        1 IX6      0.365000
@<TRIPOS>BOND
     1    1    2 1
     2    1    3 1
     3    1    6 1
     4    3    4 1
     5    3   41 1
     6    3   42 1
     7    4    5 1
     8    4   27 1
     9    5    6 1
    10    5   39 1
    11    6   15 1
    12    6   40 1
    13    7   10 1
    14    7   27 1
    15    7   31 1
    16    8   31 1
    17    8   36 1
    18    8   38 1
    19    8   44 1
    20    9   10 1
    21    9   11 1
    22    9   46 1
    23   10   13 1
    24   11   12 1
    25   11   47 1
    26   12   22 1
    27   12   23 1
    28   13   21 1
    29   13   22 1
    30   14   25 1
    31   15   53 1
    32   16   17 1
    33   16   28 1
    34   16   73 1
    35   17   20 1
    36   17   29 1
    37   18   19 1
    38   18   28 1
    39   18   29 1
    40   19   54 1
    41   19   55 1
    42   19   56 1
    43   20   57 1
    44   20   58 1
    45   20   59 1
    46   22   60 1
    47   23   24 1
    48   24   25 1
    49   24   61 1
    50   24   62 1
    51   25   26 1
    52   26   63 1
    53   26   64 1
    54   26   65 1
    55   27   43 1
    56   27   73 1
    57   30   73 1
    58   31   32 1
    59   31   38 1
    60   32   33 1
    61   32   34 1
    62   32   35 1
    63   35   36 1
    64   35   66 1
    65   35   67 1
    66   36   37 1
    67   36   72 1
    68   37   68 1
    69   37   69 1
    70   37   70 1
    71   38   39 1
    72   38   45 1
    73   39   71 1
    74   48   72 1
    75   49   72 1
    76   50   72 1
    77   51   52 1
@<TRIPOS>SUBSTRUCTURE
     1 IX6         1 TEMP              0 ****  ****    0 ROOT
