@<TRIPOS>MOLECULE
molecule
   64    66     1     0     0
SMALL
bcc


@<TRIPOS>ATOM
      1 C25          0.0000     0.0000     0.0000 c          1 IXA       0.683700
      2 O26          1.2150     0.0000     0.0000 o          1 IXA      -0.595100
      3 C27         -0.7390     0.0000     1.2790 ca         1 IXA      -0.160600
      4 C28         -2.1390    -0.0000     1.2790 ca         1 IXA      -0.081000
      5 C29         -2.8360     0.0000     2.4530 ca         1 IXA      -0.223000
      6 C30         -2.1580    -0.0010     3.6690 ca         1 IXA       0.126600
      7 C31         -0.7500    -0.0020     3.6840 ca         1 IXA      -0.153800
      8 C32         -0.0410    -0.0070     2.4840 ca         1 IXA       0.018000
      9 C33         -0.0520    -0.0020     4.9780 cc         1 IXA       0.209900
     10 C34         -0.8030    -0.0010     6.1190 cd         1 IXA      -0.329200
     11 C35         -2.2050    -0.0010     6.0390 c          1 IXA       0.706700
     12 O36         -2.8560    -0.0000     7.0710 o          1 IXA      -0.622500
     13 N37         -2.8490    -0.0010     4.8600 ns         1 IXA      -0.429100
     14 O38          1.2990    -0.0030     5.0380 oh         1 IXA      -0.491100
     15 N24         -0.6740     0.0060    -1.1660 ns         1 IXA      -0.573900
     16 C22         -0.8070     0.6180    -3.5110 c          1 IXA       0.656100
     17 O23         -1.9240     1.0070    -3.2440 o          1 IXA      -0.594100
     18 C20          0.4210    -1.4230    -2.8210 c3         1 IXA      -0.040100
     19 C17          1.3840    -1.9870    -1.8090 ca         1 IXA      -0.087300
     20 C16          0.9050    -2.6530    -0.6960 ca         1 IXA      -0.115000
     21 C18          2.7460    -1.8440    -1.9950 ca         1 IXA      -0.115000
     22 C15          1.7880    -3.1710     0.2330 ca         1 IXA      -0.112500
     23 C19          3.6290    -2.3610    -1.0660 ca         1 IXA      -0.112500
     24 C14          3.1500    -3.0230     0.0490 ca         1 IXA      -0.109000
     25 C3          -0.5260     1.9460    -9.5580 c3         1 IXA       0.082800
     26 C4          -1.2910     1.9390    -8.2330 c3         1 IXA      -0.069400
     27 C5          -0.4140     1.3230    -7.1410 c3         1 IXA      -0.101400
     28 N7           0.2360     4.1810   -10.9230 nz         1 IXA      -0.758600
     29 C8          -0.9980     3.6380   -11.1900 c2         1 IXA       0.410100
     30 N10         -1.8450     4.2610   -12.0780 nz         1 IXA      -0.758600
     31 C12         -1.1780     1.3180    -5.8160 c3         1 IXA       0.124000
     32 N13         -0.3380     0.7280    -4.7700 ns         1 IXA      -0.597900
     33 C24          0.0570     0.0110    -2.4350 c3         1 IXA       0.057700
     34 N25         -1.3670     2.5350   -10.6040 n2         1 IXA      -0.371900
     35 H24         -1.6750     0.0420    -1.1660 hn         1 IXA       0.336500
     36 H28         -3.0450     0.0680     0.6890 ha         1 IXA       0.161000
     37 H32          1.0120     0.2150     2.6120 ha         1 IXA       0.180000
     38 H29         -3.9190     0.0030     2.4580 ha         1 IXA       0.142000
     39 H37         -3.8500    -0.0000     4.8480 hn         1 IXA       0.344500
     40 H34         -0.3160    -0.0000     7.0870 ha         1 IXA       0.175000
     41 H38          1.5820     0.5120     5.7750 ho         1 IXA       0.443000
     42 HA           0.9630     0.5970    -2.3270 h1         1 IXA       0.099700
     43 H13          0.5990     0.4450    -4.9810 hn         1 IXA       0.321500
     44 H201        -0.4760    -2.0300    -2.8430 hc         1 IXA       0.047200
     45 H202         0.8840    -1.4270    -3.8010 hc         1 IXA       0.047200
     46 H16         -0.1620    -2.7690    -0.5520 ha         1 IXA       0.117500
     47 H18          3.1210    -1.3250    -2.8680 ha         1 IXA       0.117500
     48 H15          1.4120    -3.6910     1.1060 ha         1 IXA       0.134500
     49 H19          4.6960    -2.2460    -1.2120 ha         1 IXA       0.134500
     50 H14          3.8420    -3.4290     0.7770 ha         1 IXA       0.137000
     51 H31C        -0.2690     0.9300    -9.8320 h1         1 IXA       0.093700
     52 H32C         0.3790     2.5310    -9.4500 h1         1 IXA       0.093700
     53 H41C        -2.1970     1.3540    -8.3410 hc         1 IXA       0.082700
     54 H42C        -1.5480     2.9550    -7.9590 hc         1 IXA       0.082700
     55 H51C         0.4920     1.9080    -7.0330 hc         1 IXA       0.061700
     56 H52C        -0.1570     0.3070    -7.4140 hc         1 IXA       0.061700
     57 H121        -1.4350     2.3340    -5.5420 h1         1 IXA       0.062700
     58 H122        -2.0840     0.7330    -5.9230 h1         1 IXA       0.062700
     59 H71N         0.9420     3.4820   -11.0470 hn         1 IXA       0.498467
     60 H72N         0.4080     4.9430   -11.5480 hn         1 IXA       0.498467
     61 H101        -1.5850     5.2230   -12.1660 hn         1 IXA       0.498467
     62 H102        -1.7780     3.8150   -12.9720 hn         1 IXA       0.498467
     63 H73          0.2580     4.5130    -9.9790 hn         1 IXA       0.498467
     64 H103        -2.7860     4.1980   -11.7430 hn         1 IXA       0.498467
@<TRIPOS>BOND
     1     1     2 2
     2     1     3 1
     3     1    15 1
     4     3     4 ar
     5     3     8 ar
     6     4     5 ar
     7     5     6 ar
     8     6     7 ar
     9     6    13 1
    10     7     8 ar
    11     7     9 1
    12     9    10 2
    13     9    14 1
    14    10    11 1
    15    11    12 2
    16    11    13 1
    17    15    33 1
    18    16    17 2
    19    16    32 1
    20    16    33 1
    21    18    19 1
    22    18    33 1
    23    19    20 ar
    24    19    21 ar
    25    20    22 ar
    26    21    23 ar
    27    22    24 ar
    28    23    24 ar
    29    25    26 1
    30    25    34 1
    31    26    27 1
    32    27    31 1
    33    28    29 1
    34    29    30 1
    35    29    34 2
    36    31    32 1
    37    15    35 1
    38     4    36 1
    39     8    37 1
    40     5    38 1
    41    13    39 1
    42    10    40 1
    43    14    41 1
    44    33    42 1
    45    32    43 1
    46    18    44 1
    47    18    45 1
    48    20    46 1
    49    21    47 1
    50    22    48 1
    51    23    49 1
    52    24    50 1
    53    25    51 1
    54    25    52 1
    55    26    53 1
    56    26    54 1
    57    27    55 1
    58    27    56 1
    59    31    57 1
    60    31    58 1
    61    28    59 1
    62    28    60 1
    63    30    61 1
    64    30    62 1
    65    63    28 1
    66    64    30 1
@<TRIPOS>SUBSTRUCTURE
     1 IXA         1 TEMP              0 ****  ****    0 ROOT
