@<TRIPOS>MOLECULE
molecule
   22    22     1     0     0
SMALL
bcc


@<TRIPOS>ATOM
      1 S            0.0000     0.0000     0.0000 s6         1 IXD       1.565300
      2 C1           2.4280    -1.4390     1.7280 c3         1 IXD       0.313900
      3 C2           2.1030     0.0000     1.3060 c3         1 IXD       0.181100
      4 O2           1.5220     0.0000     0.0000 os         1 IXD      -0.591500
      5 C3           3.4080     0.8020     1.2900 c3         1 IXD       0.196300
      6 O3           4.1970     0.4060     0.1660 oh         1 IXD      -0.598800
      7 C4           4.1740     0.5370     2.5590 c2         1 IXD      -0.369200
      8 O1           1.2390    -2.2320     1.6920 oh         1 IXD      -0.518800
      9 C5           3.9180    -0.5050     3.3350 ce         1 IXD       0.100900
     10 O5           2.9480    -1.4100     3.0600 os         1 IXD      -0.327900
     11 C6           4.7250    -0.6880     4.5540 c          1 IXD       0.894800
     12 O1S         -0.4500     1.4040     0.3750 o          1 IXD      -0.743200
     13 O2S         -0.4010    -0.2020    -1.3490 o          1 IXD      -0.743200
     14 O3S         -0.4020    -0.8480     1.0660 o          1 IXD      -0.743200
     15 O61          4.4910    -1.7380     5.3660 o          1 IXD      -0.835800
     16 O62          5.6030     0.1070     4.8270 o          1 IXD      -0.835800
     17 H1           3.1700    -1.8550     1.0580 h2         1 IXD       0.035700
     18 H3           3.1800     1.8590     1.2220 h1         1 IXD       0.033700
     19 HO3          4.6620     1.1540    -0.1700 ho         1 IXD       0.376000
     20 H4           4.9610     1.2240     2.8480 ha         1 IXD       0.146000
     21 HO1          1.4720    -3.1420     1.6090 ho         1 IXD       0.370000
     22 H2           1.4150     0.4410     2.0170 h1         1 IXD       0.095700
@<TRIPOS>BOND
     1    13     1 1
     2    14     1 1
     3     1    12 1
     4     1     4 1
     5     2    10 1
     6     2     3 1
     7     2     8 1
     8     2    17 1
     9     4     3 1
    10     8    21 1
    11     3     5 1
    12     5     7 1
    13     5     6 1
    14     5    18 1
    15     6    19 1
    16     9     7 2
    17     7    20 1
    18     3    22 1
    19    10     9 1
    20     9    11 1
    21    11    16 1
    22    11    15 1
@<TRIPOS>SUBSTRUCTURE
     1 IXD         1 TEMP              0 ****  ****    0 ROOT
