@<TRIPOS>MOLECULE
IXD
   22    22     1     0     0
SMALL
bcc


@<TRIPOS>ATOM
      1 S          -0.1080   -0.0950   -0.1680 s6        1 IXD      1.702300
      2 C1          2.7840   -1.4720    1.5890 c3        1 IXD      0.311900
      3 C2          2.1420   -0.0850    1.3800 c3        1 IXD      0.134100
      4 O2          1.5980    0.0070    0.1010 os        1 IXD     -0.614500
      5 C3          3.2280    0.9980    1.5570 c3        1 IXD      0.199300
      6 O3          4.0190    1.1670    0.3830 oh        1 IXD     -0.630800
      7 C4          4.1110    0.6620    2.7080 c2        1 IXD     -0.349200
      8 O1          1.8850   -2.5430    1.5530 oh        1 IXD     -0.605800
      9 C5          4.1150   -0.5400    3.3180 ce        1 IXD      0.081900
     10 O5          3.3330   -1.5970    2.9120 os        1 IXD     -0.349900
     11 C6          4.9630   -0.8690    4.5520 c         1 IXD      0.929800
     12 O1S        -0.5400    1.2160    0.0270 o         1 IXD     -0.757200
     13 O2S        -0.1710   -0.5510   -1.4820 o         1 IXD     -0.757200
     14 O3S        -0.4920   -0.9990    0.8280 o         1 IXD     -0.757200
     15 O61         4.5320   -0.4980    5.6780 o         1 IXD     -0.829800
     16 O62         6.0640   -1.4570    4.3690 o         1 IXD     -0.829800
     17 H1          3.5840   -1.6790    0.8280 h2        1 IXD      0.073700
     18 H3          2.7110    1.9850    1.7460 h1        1 IXD      0.022700
     19 HO3         3.4600    0.9220   -0.3670 ho        1 IXD      0.415000
     20 H4          4.7750    1.4610    3.0550 ha        1 IXD      0.127000
     21 HO1         1.0200   -2.2220    1.8520 ho        1 IXD      0.435000
     22 H2          1.3420    0.0650    2.1620 h1        1 IXD      0.050700
@<TRIPOS>BOND
     1    1    4 1   
     2    1   12 1   
     3    1   13 1   
     4    1   14 1   
     5    2    3 1   
     6    2    8 1   
     7    2   10 1   
     8    2   17 1   
     9    3    4 1   
    10    3    5 1   
    11    3   22 1   
    12    5    6 1   
    13    5    7 1   
    14    5   18 1   
    15    6   19 1   
    16    7    9 2   
    17    7   20 1   
    18    8   21 1   
    19    9   10 1   
    20    9   11 1   
    21   11   15 1   
    22   11   16 1   
@<TRIPOS>SUBSTRUCTURE
     1 IXD         1 TEMP              0 ****  ****    0 ROOT
