@<TRIPOS>MOLECULE
IXE
   34    36     1     0     0
SMALL
bcc


@<TRIPOS>ATOM
      1 C3           0.0000     0.0000     0.0000 ca         1 IXE      -0.107000
      2 C4           1.4000     0.0000     0.0000 ca         1 IXE      -0.337600
      3 C8           2.1510     0.0000     1.2020 ca         1 IXE       0.589200
      4 N6           1.5220    -0.0010     2.4280 nv         1 IXE      -0.653500
      5 N5           3.4740     0.0010     1.1150 nb         1 IXE      -0.682000
      6 C7           4.0880     0.0010    -0.0640 ca         1 IXE       0.709900
      7 N4           5.4700     0.0010    -0.0890 nv         1 IXE      -0.501500
      8 N3           3.4370     0.0020    -1.2110 nb         1 IXE      -0.678000
      9 C5           2.0960     0.0010    -1.2330 ca         1 IXE       0.626300
     10 N2           1.4170     0.0000    -2.3810 nb         1 IXE      -0.534000
     11 C6           0.1040     0.0000    -2.4020 ca         1 IXE       0.394200
     12 C2          -0.6480    -0.0060    -1.2250 ca         1 IXE      -0.094700
     13 N1          -2.0460    -0.0060    -1.2820 nh         1 IXE      -0.238400
     14 C1          -2.8290    -0.1270    -0.0500 c3         1 IXE       0.207100
     15 C9          -2.6950     0.1090    -2.5150 ca         1 IXE       0.052600
     16 C10         -3.1060     1.3550    -2.9700 ca         1 IXE      -0.124500
     17 C11         -3.7480     1.4670    -4.1910 ca         1 IXE       0.111400
     18 F1          -4.1470     2.6790    -4.6350 f          1 IXE      -0.107900
     19 C12         -3.9820     0.3360    -4.9590 ca         1 IXE       0.059900
     20 F2          -4.6080     0.4480    -6.1510 f          1 IXE      -0.100900
     21 C13         -3.5720    -0.9080    -4.5050 ca         1 IXE       0.111400
     22 F3          -3.8000    -2.0080    -5.2540 f          1 IXE      -0.107900
     23 C14         -2.9260    -1.0220    -3.2870 ca         1 IXE      -0.124500
     24 H1          -0.5590    -0.0040     0.9280 ha         1 IXE       0.126000
     25 H2           1.3200    -0.8680     2.8850 hn         1 IXE       0.281800
     26 H3           1.3130     0.8650     2.8840 hn         1 IXE       0.281800
     27 H4           5.9550    -0.1380    -0.9530 hn         1 IXE       0.275800
     28 H5           5.9860     0.1540     0.7550 hn         1 IXE       0.275800
     29 H6          -0.4090    -0.0040    -3.3560 h4         1 IXE      -0.012900
     30 H7          -2.5760    -1.0540     0.4490 h1         1 IXE       0.009367
     31 H8          -3.8850    -0.1230    -0.2910 h1         1 IXE       0.009367
     32 H9          -2.6050     0.7080     0.6040 h1         1 IXE       0.009367
     33 H10         -2.9680     2.2320    -2.3490 ha         1 IXE       0.137000
     34 H11         -2.6060    -1.9950    -2.9330 ha         1 IXE       0.137000
@<TRIPOS>BOND
     1     1     2 ar  
     2     1    12 ar  
     3     1    24 1   
     4     2     3 ar  
     5     2     9 ar  
     6     3     4 1   
     7     3     5 ar  
     8     4    25 1   
     9     4    26 1   
    10     5     6 ar  
    11     6     7 1   
    12     6     8 ar  
    13     7    27 1   
    14     7    28 1   
    15     8     9 ar  
    16     9    10 ar  
    17    10    11 ar  
    18    11    12 ar  
    19    11    29 1   
    20    12    13 1   
    21    13    14 1   
    22    13    15 1   
    23    14    30 1   
    24    14    31 1   
    25    14    32 1   
    26    15    16 ar  
    27    15    23 ar  
    28    16    17 ar  
    29    16    33 1   
    30    17    18 1   
    31    17    19 ar  
    32    19    20 1   
    33    19    21 ar  
    34    21    22 1   
    35    21    23 ar  
    36    23    34 1   
@<TRIPOS>SUBSTRUCTURE
     1 IXE         1 TEMP              0 ****  ****    0 ROOT
