@<TRIPOS>MOLECULE
molecule
   34    36     1     0     0
SMALL
bcc


@<TRIPOS>ATOM
      1 C3           0.0000     0.0000     0.0000 ca         1 IXE      -0.113000
      2 C4           1.4000     0.0000     0.0000 ca         1 IXE      -0.355600
      3 C8           2.1510     0.0000     1.2020 ca         1 IXE       0.776200
      4 N6           1.5220    -0.0010     2.4280 nv         1 IXE      -1.082500
      5 N5           3.4740     0.0010     1.1150 nb         1 IXE      -0.810000
      6 C7           4.0880     0.0010    -0.0640 ca         1 IXE       0.960900
      7 N4           5.4700     0.0010    -0.0890 nv         1 IXE      -0.988500
      8 N3           3.4370     0.0020    -1.2110 nb         1 IXE      -0.785000
      9 C5           2.0960     0.0010    -1.2330 ca         1 IXE       0.721300
     10 N2           1.4170     0.0000    -2.3810 nb         1 IXE      -0.653000
     11 C6           0.1040     0.0000    -2.4020 ca         1 IXE       0.437200
     12 C2          -0.6480    -0.0060    -1.2250 ca         1 IXE       0.028300
     13 N1          -2.0460    -0.0060    -1.2820 nh         1 IXE      -0.622400
     14 C1          -2.8290    -0.1270    -0.0500 c3         1 IXE       0.236100
     15 C9          -2.6950     0.1090    -2.5150 ca         1 IXE       0.180600
     16 C10         -3.1060     1.3550    -2.9700 ca         1 IXE      -0.167500
     17 C11         -3.7480     1.4670    -4.1910 ca         1 IXE       0.128900
     18 F1          -4.1470     2.6790    -4.6350 f          1 IXE      -0.115400
     19 C12         -3.9820     0.3360    -4.9590 ca         1 IXE       0.060900
     20 F2          -4.6080     0.4480    -6.1510 f          1 IXE      -0.110900
     21 C13         -3.5720    -0.9080    -4.5050 ca         1 IXE       0.128900
     22 F3          -3.8000    -2.0080    -5.2540 f          1 IXE      -0.115400
     23 C14         -2.9260    -1.0220    -3.2870 ca         1 IXE      -0.167500
     24 H1          -0.5590    -0.0040     0.9280 ha         1 IXE       0.147000
     25 H2           1.3200    -0.8680     2.8850 hn         1 IXE       0.443800
     26 H3           1.3130     0.8650     2.8840 hn         1 IXE       0.443800
     27 H4           5.9550    -0.1380    -0.9530 hn         1 IXE       0.451800
     28 H5           5.9860     0.1540     0.7550 hn         1 IXE       0.451800
     29 H6          -0.4090    -0.0040    -3.3560 h4         1 IXE       0.032100
     30 H7          -2.5760    -1.0540     0.4490 h1         1 IXE       0.041367
     31 H8          -3.8850    -0.1230    -0.2910 h1         1 IXE       0.041367
     32 H9          -2.6050     0.7080     0.6040 h1         1 IXE       0.041367
     33 H10         -2.9680     2.2320    -2.3490 ha         1 IXE       0.167500
     34 H11         -2.6060    -1.9950    -2.9330 ha         1 IXE       0.167500
@<TRIPOS>BOND
     1    20    19 1
     2    22    21 1
     3    21    19 ar
     4    21    23 ar
     5    19    17 ar
     6    18    17 1
     7    17    16 ar
     8    23    15 ar
     9    10    11 ar
    10    10     9 ar
    11    11    12 ar
    12    15    16 ar
    13    15    13 1
    14     8     9 ar
    15     8     6 ar
    16     9     2 ar
    17     7     6 1
    18    12    13 1
    19    12     1 ar
    20    13    14 1
    21     6     5 ar
    22     2     1 ar
    23     2     3 ar
    24     5     3 ar
    25     3     4 1
    26     1    24 1
    27     4    25 1
    28     4    26 1
    29     7    27 1
    30     7    28 1
    31    11    29 1
    32    14    30 1
    33    14    31 1
    34    14    32 1
    35    16    33 1
    36    23    34 1
@<TRIPOS>SUBSTRUCTURE
     1 IXE         1 TEMP              0 ****  ****    0 ROOT
