@<TRIPOS>MOLECULE
IXF
   43    45     1     0     0
SMALL
bcc


@<TRIPOS>ATOM
      1 CAA          0.0000     0.0000     0.0000 c3         1 IXF       0.005900
      2 CAV          1.5300     0.0000     0.0000 c3         1 IXF       0.000600
      3 CAB          2.0390     0.0000     1.4430 c3         1 IXF       0.005900
      4 CAQ          2.0320    -1.2320    -0.7090 ca         1 IXF      -0.072300
      5 CAG          1.6910    -2.4870    -0.2380 ca         1 IXF      -0.096000
      6 CAI          2.1490    -3.6170    -0.8860 ca         1 IXF      -0.092000
      7 CAF          2.8270    -1.1040    -1.8340 ca         1 IXF      -0.096000
      8 CAH          3.2870    -2.2300    -2.4870 ca         1 IXF      -0.092000
      9 CAR          2.9520    -3.4920    -2.0130 ca         1 IXF      -0.005400
     10 NAW          3.4170    -4.6330    -2.6700 nh         1 IXF      -0.227400
     11 CAC          2.6260    -5.2320    -3.7480 c3         1 IXF       0.205100
     12 CAS          4.6400    -5.2050    -2.3000 ca         1 IXF      -0.087700
     13 CAK          5.1600    -6.2680    -3.0210 ca         1 IXF      -0.132000
     14 C5           6.3860    -6.8020    -2.6080 ca         1 IXF      -0.351600
     15 C6           6.9990    -7.8880    -3.2820 ca         1 IXF       0.576200
     16 NAE          6.4010    -8.4640    -4.3830 nv         1 IXF      -0.546500
     17 N1           8.1590    -8.3350    -2.8270 nb         1 IXF      -0.739000
     18 C2           8.7430    -7.7860    -1.7660 ca         1 IXF       0.732900
     19 NAD          9.9550    -8.2960    -1.3390 nv         1 IXF      -0.509500
     20 N3           8.2170    -6.7730    -1.1040 nb         1 IXF      -0.709000
     21 C4           7.0440    -6.2470    -1.4830 ca         1 IXF       0.640300
     22 NAL          6.4930    -5.2240    -0.8280 nb         1 IXF      -0.541000
     23 CAJ          5.3460    -4.7060    -1.2030 ca         1 IXF       0.396200
     24 H1          -0.3610    -0.2130    -0.9990 hc         1 IXF       0.005700
     25 H2          -0.3610     0.9710     0.3150 hc         1 IXF       0.005700
     26 H3          -0.3610    -0.7590     0.6840 hc         1 IXF       0.005700
     27 H4           1.8910     0.8840    -0.5110 hc         1 IXF       0.028700
     28 H5           3.1060    -0.1860     1.4490 hc         1 IXF       0.005700
     29 H6           1.5340    -0.7770     2.0040 hc         1 IXF       0.005700
     30 H7           1.8380     0.9630     1.8970 hc         1 IXF       0.005700
     31 H8           1.0650    -2.5830     0.6400 ha         1 IXF       0.111000
     32 H9           1.8840    -4.6000    -0.5150 ha         1 IXF       0.112000
     33 H10          3.0870    -0.1190    -2.2030 ha         1 IXF       0.111000
     34 H11          3.9110    -2.1290    -3.3660 ha         1 IXF       0.112000
     35 H12          2.3770    -6.2540    -3.4890 h1         1 IXF       0.006033
     36 H13          3.2000    -5.2210    -4.6660 h1         1 IXF       0.006033
     37 H14          1.7140    -4.6620    -3.8860 h1         1 IXF       0.006033
     38 H15          4.5230    -6.8300    -3.6940 ha         1 IXF       0.119000
     39 H16          6.4400    -9.4560    -4.5110 hn         1 IXF       0.274800
     40 H17          5.9780    -7.8850    -5.0820 hn         1 IXF       0.274800
     41 H18         10.5310    -7.7640    -0.7180 hn         1 IXF       0.273300
     42 H19         10.2530    -9.2010    -1.6470 hn         1 IXF       0.273300
     43 H20          4.9330    -3.8760    -0.6430 h4         1 IXF      -0.007900
@<TRIPOS>BOND
     1     1     2 1   
     2     1    24 1   
     3     1    25 1   
     4     1    26 1   
     5     2     3 1   
     6     2     4 1   
     7     2    27 1   
     8     3    28 1   
     9     3    29 1   
    10     3    30 1   
    11     4     5 ar  
    12     4     7 ar  
    13     5     6 ar  
    14     5    31 1   
    15     6     9 ar  
    16     6    32 1   
    17     7     8 ar  
    18     7    33 1   
    19     8     9 ar  
    20     8    34 1   
    21     9    10 1   
    22    10    11 1   
    23    10    12 1   
    24    11    35 1   
    25    11    36 1   
    26    11    37 1   
    27    12    13 ar  
    28    12    23 ar  
    29    13    14 ar  
    30    13    38 1   
    31    14    15 ar  
    32    14    21 ar  
    33    15    16 1   
    34    15    17 ar  
    35    16    39 1   
    36    16    40 1   
    37    17    18 ar  
    38    18    19 1   
    39    18    20 ar  
    40    19    41 1   
    41    19    42 1   
    42    20    21 ar  
    43    21    22 ar  
    44    22    23 ar  
    45    23    43 1   
@<TRIPOS>SUBSTRUCTURE
     1 IXF         1 TEMP              0 ****  ****    0 ROOT
