@<TRIPOS>MOLECULE
molecule
   43    45     1     0     0
SMALL
bcc


@<TRIPOS>ATOM
      1 CAA          0.0000     0.0000     0.0000 c3         1 IXF      -0.085100
      2 CAV          1.5300     0.0000     0.0000 c3         1 IXF      -0.032400
      3 CAB          2.0390     0.0000     1.4430 c3         1 IXF      -0.085100
      4 CAQ          2.0320    -1.2320    -0.7090 ca         1 IXF      -0.071300
      5 CAG          1.6910    -2.4870    -0.2380 ca         1 IXF      -0.122500
      6 CAI          2.1490    -3.6170    -0.8860 ca         1 IXF      -0.127000
      7 CAF          2.8270    -1.1040    -1.8340 ca         1 IXF      -0.122500
      8 CAH          3.2870    -2.2300    -2.4870 ca         1 IXF      -0.127000
      9 CAR          2.9520    -3.4920    -2.0130 ca         1 IXF       0.128600
     10 NAW          3.4170    -4.6330    -2.6700 nh         1 IXF      -0.617400
     11 CAC          2.6260    -5.2320    -3.7480 c3         1 IXF       0.237100
     12 CAS          4.6400    -5.2050    -2.3000 ca         1 IXF       0.038300
     13 CAK          5.1600    -6.2680    -3.0210 ca         1 IXF      -0.136000
     14 C5           6.3860    -6.8020    -2.6080 ca         1 IXF      -0.366600
     15 C6           6.9990    -7.8880    -3.2820 ca         1 IXF       0.774200
     16 NAE          6.4010    -8.4640    -4.3830 nv         1 IXF      -1.022500
     17 N1           8.1590    -8.3350    -2.8270 nb         1 IXF      -0.852000
     18 C2           8.7430    -7.7860    -1.7660 ca         1 IXF       0.975900
     19 NAD          9.9550    -8.2960    -1.3390 nv         1 IXF      -0.993500
     20 N3           8.2170    -6.7730    -1.1040 nb         1 IXF      -0.805000
     21 C4           7.0440    -6.2470    -1.4830 ca         1 IXF       0.728300
     22 NAL          6.4930    -5.2240    -0.8280 nb         1 IXF      -0.657000
     23 CAJ          5.3460    -4.7060    -1.2030 ca         1 IXF       0.437200
     24 H1          -0.3610    -0.2130    -0.9990 hc         1 IXF       0.037200
     25 H2          -0.3610     0.9710     0.3150 hc         1 IXF       0.037200
     26 H3          -0.3610    -0.7590     0.6840 hc         1 IXF       0.037200
     27 H4           1.8910     0.8840    -0.5110 hc         1 IXF       0.055700
     28 H5           3.1060    -0.1860     1.4490 hc         1 IXF       0.037200
     29 H6           1.5340    -0.7770     2.0040 hc         1 IXF       0.037200
     30 H7           1.8380     0.9630     1.8970 hc         1 IXF       0.037200
     31 H8           1.0650    -2.5830     0.6400 ha         1 IXF       0.136000
     32 H9           1.8840    -4.6000    -0.5150 ha         1 IXF       0.141000
     33 H10          3.0870    -0.1190    -2.2030 ha         1 IXF       0.136000
     34 H11          3.9110    -2.1290    -3.3660 ha         1 IXF       0.141000
     35 H12          2.3770    -6.2540    -3.4890 h1         1 IXF       0.037367
     36 H13          3.2000    -5.2210    -4.6660 h1         1 IXF       0.037367
     37 H14          1.7140    -4.6620    -3.8860 h1         1 IXF       0.037367
     38 H15          4.5230    -6.8300    -3.6940 ha         1 IXF       0.138000
     39 H16          6.4400    -9.4560    -4.5110 hn         1 IXF       0.443800
     40 H17          5.9780    -7.8850    -5.0820 hn         1 IXF       0.443800
     41 H18         10.5310    -7.7640    -0.7180 hn         1 IXF       0.449300
     42 H19         10.2530    -9.2010    -1.6470 hn         1 IXF       0.449300
     43 H20          4.9330    -3.8760    -0.6430 h4         1 IXF       0.036100
@<TRIPOS>BOND
     1     3     2 1
     2     1     2 1
     3     2     4 1
     4     4     7 ar
     5     4     5 ar
     6     7     8 ar
     7     5     6 ar
     8     8     9 ar
     9    22    23 ar
    10    22    21 ar
    11     6     9 ar
    12    23    12 ar
    13     9    10 1
    14    20    21 ar
    15    20    18 ar
    16    21    14 ar
    17    19    18 1
    18    18    17 ar
    19    12    10 1
    20    12    13 ar
    21    10    11 1
    22    14    13 ar
    23    14    15 ar
    24    17    15 ar
    25    15    16 1
    26     1    24 1
    27     1    25 1
    28     1    26 1
    29     2    27 1
    30     3    28 1
    31     3    29 1
    32     3    30 1
    33     5    31 1
    34     6    32 1
    35     7    33 1
    36     8    34 1
    37    11    35 1
    38    11    36 1
    39    11    37 1
    40    13    38 1
    41    16    39 1
    42    16    40 1
    43    19    41 1
    44    19    42 1
    45    23    43 1
@<TRIPOS>SUBSTRUCTURE
     1 IXF         1 TEMP              0 ****  ****    0 ROOT
