@<TRIPOS>MOLECULE
molecule
   34    36     1     0     0
SMALL
bcc


@<TRIPOS>ATOM
      1 CAQ          0.0000     0.0000     0.0000 ca         1 IXG      -0.124000
      2 CAG          1.3840     0.0000     0.0000 ca         1 IXG      -0.125000
      3 CAI          2.0760     0.0000     1.1950 ca         1 IXG      -0.129500
      4 CAF         -0.6940     0.0010     1.1960 ca         1 IXG      -0.125000
      5 CAH         -0.0090     0.0030     2.3940 ca         1 IXG      -0.129500
      6 CAR          1.3810     0.0010     2.3990 ca         1 IXG       0.133600
      7 NAW          2.0780     0.0010     3.6090 nh         1 IXG      -0.618400
      8 CAC          2.4400    -1.2670     4.2460 c3         1 IXG       0.237100
      9 CAS          2.4300     1.2140     4.2130 ca         1 IXG       0.039300
     10 CAK          3.2170     1.2220     5.3530 ca         1 IXG      -0.132000
     11 C5           3.5410     2.4620     5.9170 ca         1 IXG      -0.362600
     12 C6           4.3400     2.5720     7.0820 ca         1 IXG       0.771200
     13 NAE          4.8360     1.4500     7.7080 nv         1 IXG      -1.020500
     14 N1           4.5990     3.7840     7.5530 nb         1 IXG      -0.848000
     15 C2           4.1250     4.8730     6.9550 ca         1 IXG       0.973900
     16 NAD          4.4300     6.1090     7.4940 nv         1 IXG      -1.002500
     17 N3           3.3770     4.8260     5.8690 nb         1 IXG      -0.796000
     18 C4           3.0570     3.6470     5.3120 ca         1 IXG       0.724300
     19 NAL          2.3020     3.5770     4.2160 nb         1 IXG      -0.654000
     20 CAJ          1.9940     2.4230     3.6690 ca         1 IXG       0.435200
     21 H1          -0.5410    -0.0010    -0.9390 ha         1 IXG       0.133000
     22 H2           1.9250    -0.0010    -0.9380 ha         1 IXG       0.135000
     23 H3           3.1590    -0.0010     1.1940 ha         1 IXG       0.141000
     24 H4          -1.7780     0.0010     1.1920 ha         1 IXG       0.135000
     25 H5          -0.5540     0.0030     3.3310 ha         1 IXG       0.141000
     26 H6           2.0120    -2.0890     3.6850 h1         1 IXG       0.037367
     27 H7           2.0580    -1.2840     5.2600 h1         1 IXG       0.037367
     28 H8           3.5190    -1.3660     4.2660 h1         1 IXG       0.037367
     29 H9           3.7790     0.3370     5.6290 ha         1 IXG       0.134000
     30 H10          4.8750     1.4110     8.7080 hn         1 IXG       0.443800
     31 H11          5.1930     0.6900     7.1640 hn         1 IXG       0.443800
     32 H12          3.7940     6.8740     7.3830 hn         1 IXG       0.448800
     33 H13          5.2820     6.2370     8.0040 hn         1 IXG       0.448800
     34 H14          1.3840     2.4100     2.7730 h4         1 IXG       0.036100
@<TRIPOS>BOND
     1     1     4 ar
     2     1     2 ar
     3     4     5 ar
     4     2     3 ar
     5     5     6 ar
     6    19    20 ar
     7    19    18 ar
     8    20     9 ar
     9     3     6 ar
    10     6     7 1
    11    17    18 ar
    12    17    15 ar
    13    18    11 ar
    14    16    15 1
    15    15    14 ar
    16     9     7 1
    17     9    10 ar
    18     7     8 1
    19    11    10 ar
    20    11    12 ar
    21    14    12 ar
    22    12    13 1
    23     1    21 1
    24     2    22 1
    25     3    23 1
    26     4    24 1
    27     5    25 1
    28     8    26 1
    29     8    27 1
    30     8    28 1
    31    10    29 1
    32    13    30 1
    33    13    31 1
    34    16    32 1
    35    16    33 1
    36    20    34 1
@<TRIPOS>SUBSTRUCTURE
     1 IXG         1 TEMP              0 ****  ****    0 ROOT
