@<TRIPOS>MOLECULE
molecule
   70    75     1     0     0
SMALL
bcc


@<TRIPOS>ATOM
      1 C1           0.0000     0.0000     0.0000 c3         1 IXH      -0.090100
      2 C2           1.5300     0.0000     0.0000 c3         1 IXH       0.162000
      3 C3           2.0400     0.0000     1.4420 c3         1 IXH       0.169800
      4 C4           4.0000    -1.2410     0.7500 c3         1 IXH       0.169800
      5 C5           3.4890    -1.2410    -0.6930 c3         1 IXH       0.162000
      6 C6           3.9630    -2.5110    -1.4020 c3         1 IXH      -0.090100
      7 C7           4.0160     0.0320     2.7430 ca         1 IXH       0.116600
      8 C8           3.1460     0.1210     3.8210 ca         1 IXH      -0.153000
      9 C9           3.6450     0.1850     5.1070 ca         1 IXH      -0.105000
     10 C10          5.0180     0.1630     5.3220 ca         1 IXH       0.086600
     11 C11          5.8870     0.0740     4.2420 ca         1 IXH      -0.105000
     12 C12          5.3880     0.0090     2.9560 ca         1 IXH      -0.153000
     13 C13          4.8260    -0.3480     7.6670 ca         1 IXH       0.991900
     14 C14          3.0310    -1.6240     8.3550 ca         1 IXH       0.588200
     15 C15          3.4640    -1.4730     9.6740 ca         1 IXH      -0.506200
     16 C16          2.7430    -2.0760    10.8040 c          1 IXH       0.630900
     17 C17          3.2980    -1.8480    12.1500 cc         1 IXH      -0.468400
     18 C18          4.4450    -1.0940    12.2790 cd         1 IXH       0.275000
     19 C19          6.2350     0.1940    11.4370 ca         1 IXH       0.045600
     20 C20          6.1590     1.4140    12.0980 ca         1 IXH      -0.113000
     21 C21          7.3060     2.1520    12.3100 ca         1 IXH      -0.103000
     22 C22          8.5320     1.6820    11.8670 ca         1 IXH      -0.053300
     23 C23          9.9120     2.2940    11.9770 c3         1 IXH      -0.044100
     24 C24         10.7710     1.5420    10.9380 c3         1 IXH      -0.079400
     25 C25         10.0480     0.1830    10.8320 c3         1 IXH      -0.037100
     26 C26          8.6100     0.4680    11.2090 ca         1 IXH      -0.082300
     27 C27          7.4640    -0.2780    10.9990 ca         1 IXH      -0.075000
     28 C28          4.6300    -0.7250     9.9300 ca         1 IXH       0.740200
     29 C29          2.6390    -2.4160    13.3370 c          1 IXH       0.544300
     30 N1           3.5090    -0.0410     1.4400 nh         1 IXH      -0.598000
     31 N2           3.7330    -1.0510     7.3930 nb         1 IXH      -0.778000
     32 N3           5.0750    -0.5580    11.2200 na         1 IXH      -0.422500
     33 N4           5.2750    -0.1840     8.9030 nb         1 IXH      -0.816000
     34 N5           5.5240     0.2290     6.6250 nu         1 IXH      -0.707300
     35 N6           2.0200    -1.2020    -0.6900 n7         1 IXH      -0.819200
     36 N7           1.5900    -3.2480    13.1910 nz         1 IXH      -0.664400
     37 O1           1.7320    -2.7350    10.6360 o          1 IXH      -0.631100
     38 O2           3.0410    -2.1330    14.4500 o          1 IXH      -0.479100
     39 H1          -0.3610    -0.9160     0.4520 hc         1 IXH       0.043367
     40 H1A         -0.3610     0.8500     0.5670 hc         1 IXH       0.043367
     41 H1B         -0.3610     0.0660    -1.0190 hc         1 IXH       0.043367
     42 H2           1.8960     0.8820    -0.5110 h1         1 IXH       0.037200
     43 H3           1.7060     0.9010     1.9430 h1         1 IXH       0.049950
     44 H3A          1.6570    -0.8710     1.9600 h1         1 IXH       0.049950
     45 H4           5.0830    -1.2390     0.7490 h1         1 IXH       0.049950
     46 H4A          3.6350    -2.1240     1.2610 h1         1 IXH       0.049950
     47 H5           3.8710    -0.3690    -1.2100 h1         1 IXH       0.037200
     48 H6           3.6510    -2.4840    -2.4390 hc         1 IXH       0.043367
     49 H6A          3.5310    -3.3780    -0.9180 hc         1 IXH       0.043367
     50 H6B          5.0440    -2.5710    -1.3520 hc         1 IXH       0.043367
     51 H8           2.0760     0.1380     3.6540 ha         1 IXH       0.148500
     52 H9           2.9670     0.2540     5.9490 ha         1 IXH       0.141500
     53 H11          6.9580     0.0560     4.4090 ha         1 IXH       0.141500
     54 H12          6.0670    -0.0610     2.1150 ha         1 IXH       0.148500
     55 H14          2.1400    -2.1960     8.1260 h4         1 IXH       0.064100
     56 H18          4.8520    -0.9280    13.2690 h4         1 IXH       0.200000
     57 H20          5.2020     1.7870    12.4420 ha         1 IXH       0.140000
     58 H21          7.2470     3.1030    12.8250 ha         1 IXH       0.152000
     59 H23          9.8730     3.3500    11.7380 hc         1 IXH       0.067700
     60 H23A        10.3110     2.1420    12.9730 hc         1 IXH       0.067700
     61 H24         10.7370     2.0570     9.9850 hc         1 IXH       0.063200
     62 H24A        11.7760     1.4000    11.3190 hc         1 IXH       0.063200
     63 H25         10.4780    -0.5130    11.5410 hc         1 IXH       0.064700
     64 H25A        10.0910    -0.1720     9.8100 hc         1 IXH       0.064700
     65 H27          7.5240    -1.2290    10.4840 ha         1 IXH       0.145000
     66 HN5          6.3810     0.7140     6.8050 hn         1 IXH       0.476800
     67 HN6          1.6840    -1.2050    -1.6330 hn         1 IXH       0.362800
     68 HN7          1.8500    -4.0130    12.6010 hn         1 IXH       0.480133
     69 HN7A         1.3140    -3.5970    14.0870 hn         1 IXH       0.480133
     70 H73          0.8260    -2.7520    12.7770 hn         1 IXH       0.480133
@<TRIPOS>BOND
     1     1     2 1
     2     1    39 1
     3     1    40 1
     4     1    41 1
     5     2     3 1
     6     2    35 1
     7     2    42 1
     8     3    30 1
     9     3    43 1
    10     3    44 1
    11     4     5 1
    12    30     4 1
    13     4    45 1
    14     4    46 1
    15     5     6 1
    16    35     5 1
    17     5    47 1
    18     6    48 1
    19     6    49 1
    20     6    50 1
    21     8     7 ar
    22    30     7 1
    23     7    12 ar
    24     8     9 ar
    25     8    51 1
    26     9    10 ar
    27     9    52 1
    28    10    34 1
    29    10    11 ar
    30    12    11 ar
    31    11    53 1
    32    12    54 1
    33    33    13 ar
    34    13    34 1
    35    13    31 ar
    36    15    14 ar
    37    14    31 ar
    38    14    55 1
    39    16    15 1
    40    28    15 ar
    41    17    16 1
    42    16    37 2
    43    29    17 1
    44    18    17 2
    45    18    32 1
    46    18    56 1
    47    27    19 ar
    48    19    20 ar
    49    19    32 1
    50    21    20 ar
    51    20    57 1
    52    22    21 ar
    53    21    58 1
    54    23    22 1
    55    26    22 ar
    56    24    23 1
    57    23    59 1
    58    23    60 1
    59    24    25 1
    60    24    61 1
    61    24    62 1
    62    25    26 1
    63    25    63 1
    64    25    64 1
    65    26    27 ar
    66    27    65 1
    67    32    28 1
    68    28    33 ar
    69    38    29 2
    70    29    36 1
    71    34    66 1
    72    35    67 1
    73    36    68 1
    74    36    69 1
    75    70    36 1
@<TRIPOS>SUBSTRUCTURE
     1 IXH         1 TEMP              0 ****  ****    0 ROOT
