@<TRIPOS>MOLECULE
IXM
   32    35     1     0     0
SMALL
bcc


@<TRIPOS>ATOM
      1 C1           0.0000     0.0000     0.0000 ca         1 IXM      -0.242900
      2 C2           1.4820     0.0000     0.0000 cc         1 IXM       0.465200
      3 C3          -0.4060    -0.0090     1.3400 ca         1 IXM      -0.133200
      4 N4           0.7110    -0.0060     2.1650 na         1 IXM       0.275600
      5 C5          -1.7670    -0.0140     1.6340 ca         1 IXM      -0.128000
      6 C7          -2.6960    -0.0170     0.6150 ca         1 IXM      -0.047000
      7 C9          -2.2900    -0.0150    -0.7080 ca         1 IXM      -0.143000
      8 C11         -0.9460    -0.0090    -1.0210 ca         1 IXM      -0.008000
      9 C13          1.8670     0.0000     1.4280 cc         1 IXM      -0.100700
     10 C14          3.1600     0.0040     1.9310 cd         1 IXM      -0.222400
     11 C15          3.5780     0.2370     3.3180 c          1 IXM       0.629700
     12 N16          4.9180     0.1530     3.3700 ns         1 IXM       0.015900
     13 C17          5.4550    -0.1210     2.1190 ca         1 IXM      -0.122400
     14 C18          4.4140    -0.2310     1.1850 ca         1 IXM      -0.067800
     15 C19          6.7670    -0.2950     1.6910 ca         1 IXM      -0.118000
     16 C20          7.0330    -0.5640     0.3640 ca         1 IXM      -0.080000
     17 C21          6.0030    -0.6650    -0.5570 ca         1 IXM      -0.124000
     18 C22          4.6950    -0.4970    -0.1530 ca         1 IXM      -0.103000
     19 O23          2.8390     0.4670     4.2590 o          1 IXM      -0.702500
     20 N24          2.2760     0.0040    -1.0350 n2         1 IXM      -0.335200
     21 O39          1.7340     0.0040    -2.3440 oh         1 IXM      -0.367500
     22 HN4          0.6770    -0.0070     3.1650 hn         1 IXM       0.162700
     23 HC5         -2.0960    -0.0160     2.6660 ha         1 IXM       0.110000
     24 HC7         -3.7530    -0.0220     0.8530 ha         1 IXM       0.104000
     25 HC9         -3.0300    -0.0170    -1.5000 ha         1 IXM       0.110000
     26 H11         -0.6290    -0.0060    -2.0560 ha         1 IXM       0.117000
     27 H16          5.4600     0.2720     4.2030 hn         1 IXM       0.173500
     28 H19          7.5810    -0.2190     2.4010 ha         1 IXM       0.102000
     29 H20          8.0580    -0.6980     0.0380 ha         1 IXM       0.100000
     30 H21          6.2250    -0.8770    -1.5950 ha         1 IXM       0.101000
     31 H22          3.8890    -0.5750    -0.8720 ha         1 IXM       0.162000
     32 H39          2.3350     0.4280    -2.9340 ho         1 IXM       0.420000
@<TRIPOS>BOND
     1     1     2 1   
     2     1     3 ar  
     3     1     8 ar  
     4     2     9 1   
     5     2    20 2   
     6     3     4 1   
     7     3     5 ar  
     8     4     9 1   
     9     4    22 1   
    10     5     6 ar  
    11     5    23 1   
    12     6     7 ar  
    13     6    24 1   
    14     7     8 ar  
    15     7    25 1   
    16     8    26 1   
    17     9    10 2   
    18    10    11 1   
    19    10    14 1   
    20    11    12 1   
    21    11    19 2   
    22    12    13 1   
    23    12    27 1   
    24    13    14 ar  
    25    13    15 ar  
    26    14    18 ar  
    27    15    16 ar  
    28    15    28 1   
    29    16    17 ar  
    30    16    29 1   
    31    17    18 ar  
    32    17    30 1   
    33    18    31 1   
    34    20    21 1   
    35    21    32 1   
@<TRIPOS>SUBSTRUCTURE
     1 IXM         1 TEMP              0 ****  ****    0 ROOT
