@<TRIPOS>MOLECULE
molecule
   92    96     1     0     0
SMALL
bcc


@<TRIPOS>ATOM
      1 S            0.0000     0.0000     0.0000 s6         1 IXN       1.658100
      2 N1          -4.6130     3.9670    -8.5540 nb         1 IXN      -0.854000
      3 C2          -4.6210     4.8150    -7.5350 ca         1 IXN       0.856500
      4 N3          -4.1490     4.4920    -6.3440 nb         1 IXN      -0.759000
      5 C4          -3.6430     3.2840    -6.1220 ca         1 IXN       0.499800
      6 C5          -3.6140     2.3500    -7.1710 ca         1 IXN      -0.217200
      7 C6          -4.1270     2.7390    -8.4220 ca         1 IXN       0.811200
      8 N6          -4.1240     1.8610    -9.4910 nv         1 IXN      -0.984500
      9 N7          -3.0550     1.2170    -6.6830 nc         1 IXN      -0.584100
     10 C8          -2.7470     1.3910    -5.4310 cd         1 IXN       0.436700
     11 N9          -3.0900     2.6500    -5.0370 na         1 IXN      -0.249000
     12 O9           0.9240    -0.8300    -2.5210 o          1 IXN      -0.518100
     13 C1'         -2.9010     3.2230    -3.7010 c3         1 IXN       0.262800
     14 O1P          1.4220     0.0000     0.0000 o          1 IXN      -0.630300
     15 C1S         -0.3320    -2.7710    -2.8380 ca         1 IXN      -0.186600
     16 C2'         -4.1900     3.0680    -2.8550 c3         1 IXN       0.093100
     17 O2'         -5.0860     4.1570    -3.0880 oh         1 IXN      -0.546800
     18 C21          0.0840    -1.5830    -2.0690 c          1 IXN       0.688700
     19 O2P         -0.7780     0.0000     1.1900 o          1 IXN      -0.630300
     20 C2S          0.2390    -3.0350    -4.0910 ca         1 IXN       0.190100
     21 O2S          1.1780    -2.1990    -4.6010 oh         1 IXN      -0.474100
     22 C3'         -3.6360     3.1090    -1.4100 c3         1 IXN       0.086100
     23 O3'         -3.7700     4.4190    -0.8590 oh         1 IXN      -0.561800
     24 N33         -5.1440     6.0950    -7.7270 na         1 IXN       0.033600
     25 N34         -5.2340     7.1210    -6.7740 nd         1 IXN      -0.127800
     26 N35         -5.7740     8.1440    -7.3390 nc         1 IXN      -0.338000
     27 C36         -6.0510     7.8660    -8.6140 cc         1 IXN       0.251600
     28 C37         -5.6640     6.6010    -8.8820 cd         1 IXN      -0.187600
     29 C38         -6.6880     8.8130    -9.5970 c3         1 IXN      -0.092700
     30 C39         -8.0120     9.3270    -9.0260 c3         1 IXN      -0.079400
     31 C3S         -0.1600    -4.1540    -4.8050 ca         1 IXN      -0.204000
     32 C4'         -2.1480     2.7380    -1.5660 c3         1 IXN       0.129100
     33 O4'         -1.9180     2.4690    -2.9590 os         1 IXN      -0.399600
     34 C40         -8.6580    10.2890   -10.0240 c3         1 IXN      -0.083400
     35 C41         -9.9810    10.8040    -9.4530 c3         1 IXN      -0.081400
     36 C42        -10.6290    11.7650   -10.4520 c3         1 IXN      -0.082400
     37 C43        -11.9510    12.2800    -9.8810 c3         1 IXN      -0.081400
     38 C44        -12.5990    13.2410   -10.8790 c3         1 IXN      -0.082400
     39 C45        -13.9220    13.7560   -10.3080 c3         1 IXN      -0.081400
     40 C46        -14.5690    14.7170   -11.3060 c3         1 IXN      -0.082400
     41 C4S         -1.1150    -5.0040    -4.2850 ca         1 IXN      -0.069000
     42 C5'         -1.8320     1.4920    -0.7370 c3         1 IXN       0.159400
     43 O5'         -0.4290     1.2250    -0.7950 os         1 IXN      -0.529500
     44 C5S         -1.6820    -4.7470    -3.0470 ca         1 IXN      -0.161000
     45 C6S         -1.2930    -3.6420    -2.3200 ca         1 IXN      -0.078000
     46 NHS         -0.4670    -1.3330    -0.8640 ns         1 IXN      -0.686300
     47 C29        -15.8920    15.2320   -10.7350 c3         1 IXN      -0.081400
     48 C30        -16.5390    16.1930   -11.7340 c3         1 IXN      -0.084400
     49 C31        -17.8620    16.7070   -11.1620 c3         1 IXN      -0.092100
     50 HN6         -4.2390     2.2070   -10.4230 hn         1 IXN       0.453300
     51 HN6A        -3.9940     0.8810    -9.3330 hn         1 IXN       0.453300
     52 H1'         -2.6120     4.2650    -3.7640 h2         1 IXN       0.123700
     53 H2'         -4.6680     2.1170    -3.0550 h1         1 IXN       0.055700
     54 HO2'        -5.9750     3.8600    -2.9850 ho         1 IXN       0.407000
     55 HO2S         1.9150    -2.7020    -4.9040 ho         1 IXN       0.428000
     56 H3'         -4.1430     2.3780    -0.7920 h1         1 IXN       0.044700
     57 HO3'        -4.2200     4.3680    -0.0320 ho         1 IXN       0.409000
     58 H37         -5.7560     6.0850    -9.8300 h4         1 IXN       0.196000
     59 H38         -6.0230     9.6500    -9.7750 hc         1 IXN       0.051700
     60 H38A        -6.8740     8.2950   -10.5300 hc         1 IXN       0.051700
     61 H39         -8.6770     8.4910    -8.8480 hc         1 IXN       0.052700
     62 H39A        -7.8260     9.8460    -8.0930 hc         1 IXN       0.052700
     63 H3S          0.2790    -4.3620    -5.7740 ha         1 IXN       0.145000
     64 H4'         -1.5280     3.5670    -1.2460 h1         1 IXN       0.102700
     65 H40         -7.9930    11.1250   -10.2030 hc         1 IXN       0.039700
     66 H40A        -8.8450     9.7710   -10.9570 hc         1 IXN       0.039700
     67 H41        -10.6460     9.9670    -9.2740 hc         1 IXN       0.042700
     68 H41A        -9.7950    11.3230    -8.5210 hc         1 IXN       0.042700
     69 H42         -9.9630    12.6010   -10.6310 hc         1 IXN       0.040700
     70 H42A       -10.8150    11.2460   -11.3840 hc         1 IXN       0.040700
     71 H43        -11.7650    12.7990    -8.9480 hc         1 IXN       0.041200
     72 H43A       -12.6170    11.4430    -9.7010 hc         1 IXN       0.041200
     73 H44        -12.7850    12.7220   -11.8110 hc         1 IXN       0.040700
     74 H44A       -11.9340    14.0770   -11.0580 hc         1 IXN       0.040700
     75 H45        -13.7350    14.2750    -9.3760 hc         1 IXN       0.041200
     76 H45A       -14.5870    12.9190   -10.1290 hc         1 IXN       0.041200
     77 H46        -13.9040    15.5530   -11.4850 hc         1 IXN       0.040700
     78 H46A       -14.7560    14.1980   -12.2390 hc         1 IXN       0.040700
     79 H4S         -1.4250    -5.8760    -4.8480 ha         1 IXN       0.139000
     80 H5'         -2.3770     0.6450    -1.1360 h1         1 IXN       0.064200
     81 H5'A        -2.1260     1.6590     0.2920 h1         1 IXN       0.064200
     82 H5S         -2.4290    -5.4200    -2.6460 ha         1 IXN       0.138000
     83 H6S         -1.7390    -3.4450    -1.3520 ha         1 IXN       0.127000
     84 HNHS        -1.1180    -1.9820    -0.4680 hn         1 IXN       0.342500
     85 H371       -16.5570    14.3950   -10.5560 hc         1 IXN       0.041200
     86 H381       -15.7050    15.7510    -9.8030 hc         1 IXN       0.041200
     87 H391       -16.7260    15.6740   -12.6660 hc         1 IXN       0.039700
     88 H401       -15.8740    17.0290   -11.9130 hc         1 IXN       0.039700
     89 H411       -18.3050    17.4130   -11.8550 hc         1 IXN       0.032367
     90 H421       -18.5390    15.8750   -11.0140 hc         1 IXN       0.032367
     91 H431       -17.6800    17.1990   -10.2140 hc         1 IXN       0.032367
     92 H8          -2.2860     0.6450    -4.7940 h5         1 IXN       0.093800
@<TRIPOS>BOND
     1     1    46 1
     2     1    14 2
     3     2     7 ar
     4     3     2 ar
     5     3     4 ar
     6     4     5 ar
     7     5     6 ar
     8     5    11 1
     9     6     9 1
    10     7     6 ar
    11     7     8 1
    12     9    10 2
    13    11    10 1
    14    11    13 1
    15    12    18 2
    16    13    16 1
    17    13    33 1
    18    15    20 ar
    19    16    22 1
    20    17    16 1
    21    18    15 1
    22    18    46 1
    23    19     1 2
    24    20    31 ar
    25    20    21 1
    26    22    23 1
    27    24     3 1
    28    25    24 1
    29    26    25 2
    30    26    27 1
    31    27    28 2
    32    28    24 1
    33    29    27 1
    34    30    29 1
    35    32    22 1
    36    32    42 1
    37    33    32 1
    38    34    30 1
    39    35    34 1
    40    36    35 1
    41    37    36 1
    42    38    37 1
    43    39    38 1
    44    40    39 1
    45    41    31 ar
    46    43     1 1
    47    43    42 1
    48    44    41 ar
    49    45    15 ar
    50    45    44 ar
    51    40    47 1
    52    47    48 1
    53    48    49 1
    54     8    50 1
    55     8    51 1
    56    10    92 1
    57    13    52 1
    58    16    53 1
    59    17    54 1
    60    21    55 1
    61    22    56 1
    62    23    57 1
    63    28    58 1
    64    29    59 1
    65    29    60 1
    66    30    61 1
    67    30    62 1
    68    31    63 1
    69    32    64 1
    70    34    65 1
    71    34    66 1
    72    35    67 1
    73    35    68 1
    74    36    69 1
    75    36    70 1
    76    37    71 1
    77    37    72 1
    78    38    73 1
    79    38    74 1
    80    39    75 1
    81    39    76 1
    82    40    77 1
    83    40    78 1
    84    41    79 1
    85    42    80 1
    86    42    81 1
    87    44    82 1
    88    45    83 1
    89    46    84 1
    90    47    85 1
    91    47    86 1
    92    48    87 1
    93    48    88 1
    94    49    89 1
    95    49    90 1
    96    49    91 1
@<TRIPOS>SUBSTRUCTURE
     1 IXN         1 TEMP              0 ****  ****    0 ROOT
