@<TRIPOS>MOLECULE
IXN
   92    96     1     0     0
SMALL
bcc


@<TRIPOS>ATOM
      1 S            0.0000     0.0000     0.0000 s6         1 IXN       1.364100
      2 N1          -4.6130     3.9670    -8.5540 nb         1 IXN      -0.744000
      3 C2          -4.6210     4.8150    -7.5350 ca         1 IXN       0.594500
      4 N3          -4.1490     4.4920    -6.3440 nb         1 IXN      -0.609000
      5 C4          -3.6430     3.2840    -6.1220 ca         1 IXN       0.276800
      6 C5          -3.6140     2.3500    -7.1710 ca         1 IXN      -0.241200
      7 C6          -4.1270     2.7390    -8.4220 ca         1 IXN       0.604200
      8 N6          -4.1240     1.8610    -9.4910 nv         1 IXN      -0.481500
      9 N7          -3.0550     1.2170    -6.6830 nc         1 IXN      -0.495100
     10 C8          -2.7470     1.3910    -5.4310 cd         1 IXN       0.259700
     11 N9          -3.0900     2.6500    -5.0370 na         1 IXN       0.215000
     12 O9           0.9240    -0.8300    -2.5210 o          1 IXN      -0.559100
     13 C1'         -2.9010     3.2230    -3.7010 c3         1 IXN       0.152800
     14 O1P          1.4220     0.0000     0.0000 o          1 IXN      -0.585800
     15 C1S         -0.3320    -2.7710    -2.8380 ca         1 IXN      -0.211600
     16 C2'         -4.1900     3.0680    -2.8550 c3         1 IXN       0.127100
     17 O2'         -5.0860     4.1570    -3.0880 oh         1 IXN      -0.526800
     18 C21          0.0840    -1.5830    -2.0690 c          1 IXN       0.666700
     19 O2P         -0.7780     0.0000     1.1900 o          1 IXN      -0.585800
     20 C2S          0.2390    -3.0350    -4.0910 ca         1 IXN       0.215100
     21 O2S          1.1780    -2.1990    -4.6010 oh         1 IXN      -0.453100
     22 C3'         -3.6360     3.1090    -1.4100 c3         1 IXN       0.130100
     23 O3'         -3.7700     4.4190    -0.8590 oh         1 IXN      -0.542800
     24 N33         -5.1440     6.0950    -7.7270 na         1 IXN       0.498600
     25 N34         -5.2340     7.1210    -6.7740 nc         1 IXN      -0.343800
     26 N35         -5.7740     8.1440    -7.3390 nd         1 IXN      -0.258000
     27 C36         -6.0510     7.8660    -8.6140 cd         1 IXN       0.222600
     28 C37         -5.6640     6.6010    -8.8820 cc         1 IXN      -0.346600
     29 C38         -6.6880     8.8130    -9.5970 c3         1 IXN      -0.023700
     30 C39         -8.0120     9.3270    -9.0260 c3         1 IXN      -0.031400
     31 C3S         -0.1600    -4.1540    -4.8050 ca         1 IXN      -0.192000
     32 C4'         -2.1480     2.7380    -1.5660 c3         1 IXN       0.151100
     33 O4'         -1.9180     2.4690    -2.9590 os         1 IXN      -0.387600
     34 C40         -8.6580    10.2890   -10.0240 c3         1 IXN      -0.029400
     35 C41         -9.9810    10.8040    -9.4530 c3         1 IXN      -0.028400
     36 C42        -10.6290    11.7650   -10.4520 c3         1 IXN      -0.029400
     37 C43        -11.9510    12.2800    -9.8810 c3         1 IXN      -0.029400
     38 C44        -12.5990    13.2410   -10.8790 c3         1 IXN      -0.029400
     39 C45        -13.9220    13.7560   -10.3080 c3         1 IXN      -0.029400
     40 C46        -14.5690    14.7170   -11.3060 c3         1 IXN      -0.029400
     41 C4S         -1.1150    -5.0040    -4.2850 ca         1 IXN      -0.034000
     42 C5'         -1.8320     1.4920    -0.7370 c3         1 IXN       0.246400
     43 O5'         -0.4290     1.2250    -0.7950 os         1 IXN      -0.432500
     44 C5S         -1.6820    -4.7470    -3.0470 ca         1 IXN      -0.142000
     45 C6S         -1.2930    -3.6420    -2.3200 ca         1 IXN      -0.047000
     46 NHS         -0.4670    -1.3330    -0.8640 ns         1 IXN      -0.358300
     47 C29        -15.8920    15.2320   -10.7350 c3         1 IXN      -0.030400
     48 C30        -16.5390    16.1930   -11.7340 c3         1 IXN      -0.028400
     49 C31        -17.8620    16.7070   -11.1620 c3         1 IXN       0.005900
     50 HN6         -4.2390     2.2070   -10.4230 hn         1 IXN       0.278800
     51 HN6A        -3.9940     0.8810    -9.3330 hn         1 IXN       0.278800
     52 H1'         -2.6120     4.2650    -3.7640 h2         1 IXN       0.080700
     53 H2'         -4.6680     2.1170    -3.0550 h1         1 IXN       0.017700
     54 HO2'        -5.9750     3.8600    -2.9850 ho         1 IXN       0.390000
     55 HO2S         1.9150    -2.7020    -4.9040 ho         1 IXN       0.406000
     56 H3'         -4.1430     2.3780    -0.7920 h1         1 IXN       0.009700
     57 HO3'        -4.2200     4.3680    -0.0320 ho         1 IXN       0.393000
     58 H37         -5.7560     6.0850    -9.8300 h4         1 IXN       0.168000
     59 H38         -6.0230     9.6500    -9.7750 hc         1 IXN       0.017200
     60 H38A        -6.8740     8.2950   -10.5300 hc         1 IXN       0.017200
     61 H39         -8.6770     8.4910    -8.8480 hc         1 IXN       0.024200
     62 H39A        -7.8260     9.8460    -8.0930 hc         1 IXN       0.024200
     63 H3S          0.2790    -4.3620    -5.7740 ha         1 IXN       0.118000
     64 H4'         -1.5280     3.5670    -1.2460 h1         1 IXN       0.061700
     65 H40         -7.9930    11.1250   -10.2030 hc         1 IXN       0.013200
     66 H40A        -8.8450     9.7710   -10.9570 hc         1 IXN       0.013200
     67 H41        -10.6460     9.9670    -9.2740 hc         1 IXN       0.015700
     68 H41A        -9.7950    11.3230    -8.5210 hc         1 IXN       0.015700
     69 H42         -9.9630    12.6010   -10.6310 hc         1 IXN       0.014200
     70 H42A       -10.8150    11.2460   -11.3840 hc         1 IXN       0.014200
     71 H43        -11.7650    12.7990    -8.9480 hc         1 IXN       0.014700
     72 H43A       -12.6170    11.4430    -9.7010 hc         1 IXN       0.014700
     73 H44        -12.7850    12.7220   -11.8110 hc         1 IXN       0.014200
     74 H44A       -11.9340    14.0770   -11.0580 hc         1 IXN       0.014200
     75 H45        -13.7350    14.2750    -9.3760 hc         1 IXN       0.014200
     76 H45A       -14.5870    12.9190   -10.1290 hc         1 IXN       0.014200
     77 H46        -13.9040    15.5530   -11.4850 hc         1 IXN       0.014200
     78 H46A       -14.7560    14.1980   -12.2390 hc         1 IXN       0.014200
     79 H4S         -1.4250    -5.8760    -4.8480 ha         1 IXN       0.104000
     80 H5'         -2.3770     0.6450    -1.1360 h1         1 IXN       0.016700
     81 H5'A        -2.1260     1.6590     0.2920 h1         1 IXN       0.016700
     82 H5S         -2.4290    -5.4200    -2.6460 ha         1 IXN       0.109000
     83 H6S         -1.7390    -3.4450    -1.3520 ha         1 IXN       0.100000
     84 HNHS        -1.1180    -1.9820    -0.4680 hn         1 IXN       0.237500
     85 H371       -16.5570    14.3950   -10.5560 hc         1 IXN       0.014700
     86 H381       -15.7050    15.7510    -9.8030 hc         1 IXN       0.014700
     87 H391       -16.7260    15.6740   -12.6660 hc         1 IXN       0.011700
     88 H401       -15.8740    17.0290   -11.9130 hc         1 IXN       0.011700
     89 H411       -18.3050    17.4130   -11.8550 hc         1 IXN      -0.000300
     90 H421       -18.5390    15.8750   -11.0140 hc         1 IXN      -0.000300
     91 H431       -17.6800    17.1990   -10.2140 hc         1 IXN      -0.000300
     92 H8          -2.2860     0.6450    -4.7940 h5         1 IXN       0.043800
@<TRIPOS>BOND
     1     1    14 2   
     2     1    19 2   
     3     1    43 1   
     4     1    46 1   
     5     2     3 ar  
     6     2     7 ar  
     7     3     4 ar  
     8     3    24 1   
     9     4     5 ar  
    10     5     6 ar  
    11     5    11 1   
    12     6     7 ar  
    13     6     9 1   
    14     7     8 1   
    15     8    50 1   
    16     8    51 1   
    17     9    10 2   
    18    10    11 1   
    19    10    92 1   
    20    11    13 1   
    21    12    18 2   
    22    13    16 1   
    23    13    33 1   
    24    13    52 1   
    25    15    18 1   
    26    15    20 ar  
    27    15    45 ar  
    28    16    17 1   
    29    16    22 1   
    30    16    53 1   
    31    17    54 1   
    32    18    46 1   
    33    20    21 1   
    34    20    31 ar  
    35    21    55 1   
    36    22    23 1   
    37    22    32 1   
    38    22    56 1   
    39    23    57 1   
    40    24    25 1   
    41    24    28 1   
    42    25    26 2   
    43    26    27 1   
    44    27    28 2   
    45    27    29 1   
    46    28    58 1   
    47    29    30 1   
    48    29    59 1   
    49    29    60 1   
    50    30    34 1   
    51    30    61 1   
    52    30    62 1   
    53    31    41 ar  
    54    31    63 1   
    55    32    33 1   
    56    32    42 1   
    57    32    64 1   
    58    34    35 1   
    59    34    65 1   
    60    34    66 1   
    61    35    36 1   
    62    35    67 1   
    63    35    68 1   
    64    36    37 1   
    65    36    69 1   
    66    36    70 1   
    67    37    38 1   
    68    37    71 1   
    69    37    72 1   
    70    38    39 1   
    71    38    73 1   
    72    38    74 1   
    73    39    40 1   
    74    39    75 1   
    75    39    76 1   
    76    40    47 1   
    77    40    77 1   
    78    40    78 1   
    79    41    44 ar  
    80    41    79 1   
    81    42    43 1   
    82    42    80 1   
    83    42    81 1   
    84    44    45 ar  
    85    44    82 1   
    86    45    83 1   
    87    46    84 1   
    88    47    48 1   
    89    47    85 1   
    90    47    86 1   
    91    48    49 1   
    92    48    87 1   
    93    48    88 1   
    94    49    89 1   
    95    49    90 1   
    96    49    91 1   
@<TRIPOS>SUBSTRUCTURE
     1 IXN         1 TEMP              0 ****  ****    0 ROOT
