@<TRIPOS>MOLECULE
IXO
   31    31     1     0     0
SMALL
bcc


@<TRIPOS>ATOM
      1 C01          0.0000     0.0000     0.0000 c3         1 IXO       0.057100
      2 N02          1.4690     0.0000     0.0000 n4         1 IXO      -0.075800
      3 C03          1.9590     0.0000     1.3840 c3         1 IXO       0.057100
      4 C04          1.9590    -1.1990    -0.6930 c3         1 IXO       0.057100
      5 C05          1.9590     1.2000    -0.6930 c3         1 IXO       0.013900
      6 C06          1.4680     2.4020     0.0020 c1         1 IXO      -0.134100
      7 C07          1.0650     3.3480     0.5670 c1         1 IXO       0.073900
      8 C08          0.2590     4.5000     0.9940 c3         1 IXO       0.299500
      9 O09          0.8020     5.5370     0.3450 os         1 IXO      -0.400400
     10 C10          0.1610     6.7640     0.6240 c2         1 IXO       0.359600
     11 N11         -0.9470     7.0180     0.1010 n2         1 IXO      -0.235200
     12 O12         -0.9990     8.2400    -0.1320 os         1 IXO      -0.089300
     13 C13          0.2890     8.8860     0.3130 c3         1 IXO       0.101400
     14 C14          1.0990     7.8530     0.8410 c3         1 IXO      -0.060700
     15 H101        -0.4630    -0.2480    -0.9470 hx         1 IXO       0.064922
     16 H201        -0.0580     1.0180     0.3670 hx         1 IXO       0.064922
     17 H301        -0.0510    -0.5960     0.9030 hx         1 IXO       0.064922
     18 H103         3.0050    -0.2500     1.2490 hx         1 IXO       0.064922
     19 H203         1.9880     0.9360     1.9280 hx         1 IXO       0.064922
     20 H303         1.4160    -0.6080     2.0980 hx         1 IXO       0.064922
     21 H104         1.9460    -1.9190     0.1160 hx         1 IXO       0.064922
     22 H204         1.7840    -1.2810    -1.7590 hx         1 IXO       0.064922
     23 H304         3.0050    -0.9790    -0.5170 hx         1 IXO       0.064922
     24 H105         2.9780     1.1850    -0.3260 hx         1 IXO       0.065200
     25 H205         1.8360     2.0250    -0.0020 hx         1 IXO       0.065200
     26 H108         0.6860     4.3370     1.9770 h1         1 IXO       0.043200
     27 H208        -0.7990     4.6900     0.8570 h1         1 IXO       0.043200
     28 H113        -0.0620     9.6630     0.9810 h1         1 IXO       0.035700
     29 H213         0.6840     9.6890    -0.2960 h1         1 IXO       0.035700
     30 H114         2.0230     7.8660     0.2760 hc         1 IXO       0.050200
     31 H214         1.4160     8.1170     1.8430 hc         1 IXO       0.050200
@<TRIPOS>BOND
     1     1     2 1   
     2     1    15 1   
     3     1    16 1   
     4     1    17 1   
     5     2     3 1   
     6     2     4 1   
     7     2     5 1   
     8     3    18 1   
     9     3    19 1   
    10     3    20 1   
    11     4    21 1   
    12     4    22 1   
    13     4    23 1   
    14     5     6 1   
    15     5    24 1   
    16     5    25 1   
    17     6     7 3   
    18     7     8 1   
    19     8     9 1   
    20     8    26 1   
    21     8    27 1   
    22     9    10 1   
    23    10    11 2   
    24    10    14 1   
    25    11    12 1   
    26    12    13 1   
    27    13    14 1   
    28    13    28 1   
    29    13    29 1   
    30    14    30 1   
    31    14    31 1   
@<TRIPOS>SUBSTRUCTURE
     1 IXO         1 TEMP              0 ****  ****    0 ROOT
