@<TRIPOS>MOLECULE
IXS
   94    96     1     0     0
SMALL
bcc


@<TRIPOS>ATOM
      1 O2          0.5530   -0.5090   -4.2310 o         1 IXS     -0.646300
      2 S1          1.6270    0.3900   -4.0460 s6        1 IXS      1.470900
      3 O1          1.8940    0.7640   -2.7300 o         1 IXS     -0.646300
      4 C22         2.9850   -0.1060   -4.8560 c3        1 IXS     -0.415300
      5 N24         1.1510    1.8150   -4.8590 nh        1 IXS     -0.655900
      6 C29         2.1160    2.7210   -5.4220 c3        1 IXS      0.176100
      7 C19        -0.1690    2.2620   -4.7590 ca        1 IXS      0.204600
      8 C20        -1.2480    1.3660   -5.0250 ca        1 IXS     -0.034000
      9 C15        -2.5670    1.7610   -4.8260 ca        1 IXS     -0.155600
     10 C14        -3.7120    0.8430   -5.0460 c         1 IXS      0.547700
     11 O5         -4.8460    1.2250   -5.3190 o         1 IXS     -0.404100
     12 N13        -3.5000   -0.6200   -4.8800 n4        1 IXS     -0.687800
     13 C12        -3.2080   -1.3670   -6.2070 c3        1 IXS      0.242800
     14 C50        -4.3840   -1.2620   -7.1580 c3        1 IXS     -0.138100
     15 C5         -2.8220   -2.7600   -5.8470 ca        1 IXS     -0.245300
     16 C6         -3.6920   -3.8440   -6.0350 ca        1 IXS     -0.068000
     17 C7         -3.2840   -5.1370   -5.7380 ca        1 IXS     -0.162500
     18 C4         -1.5290   -2.9880   -5.3430 ca        1 IXS     -0.068000
     19 C3         -1.1070   -4.2710   -5.0360 ca        1 IXS     -0.162500
     20 C2         -1.9850   -5.3620   -5.2350 ca        1 IXS      0.219900
     21 F1         -1.5800   -6.6090   -4.9430 f         1 IXS     -0.081900
     22 C18        -0.4830    3.5810   -4.3700 ca        1 IXS     -0.103000
     23 C17        -1.8220    3.9830   -4.2110 ca        1 IXS     -0.191600
     24 C16        -2.8700    3.0770   -4.4410 ca        1 IXS      0.003000
     25 C34        -2.2020    5.3350   -3.8060 c         1 IXS      0.616700
     26 O4         -3.2840    5.9020   -3.9500 o         1 IXS     -0.525100
     27 N35        -1.1610    6.1700   -3.0830 n4        1 IXS     -0.694800
     28 C36        -1.7200    7.2680   -2.2180 c3        1 IXS      0.106500
     29 C56        -0.6460    7.7200   -1.1900 c3        1 IXS     -0.036100
     30 C58        -0.0720    6.5620   -0.4610 ca        1 IXS     -0.215300
     31 C65        -0.6960    6.0720    0.6930 ca        1 IXS     -0.132000
     32 C64        -0.0960    5.0550    1.4360 ca        1 IXS     -0.100500
     33 C63         1.1310    4.5240    1.0340 ca        1 IXS     -0.061000
     34 C62         1.7580    5.0100   -0.1170 ca        1 IXS     -0.100500
     35 C61         1.1630    6.0250   -0.8620 ca        1 IXS     -0.132000
     36 C37        -2.2010    8.5190   -2.9990 c3        1 IXS      0.094800
     37 N38        -3.6920    8.6620   -3.0570 n4        1 IXS     -0.777000
     38 C39        -4.1280   10.0050   -3.6160 c3        1 IXS      0.067500
     39 C8         -4.3200    9.9430   -5.1270 c3        1 IXS     -0.160100
     40 C1         -5.4310   10.4710   -2.9270 c         1 IXS      0.507100
     41 O3         -5.9790    9.8240   -2.0430 o         1 IXS     -0.382100
     42 N9         -6.0240   11.7600   -3.3470 n4        1 IXS     -0.659800
     43 C10        -6.0960   12.7640   -2.2090 c3        1 IXS      0.109800
     44 C51        -6.8450   14.0380   -2.6260 c3        1 IXS     -0.083700
     45 C52        -8.2690   13.7430   -3.0390 c3        1 IXS     -0.120600
     46 C53        -6.8120   14.9770   -1.4320 c3        1 IXS     -0.120600
     47 H221        2.8910   -0.2060   -5.9700 h1        1 IXS      0.165700
     48 H222        3.9000    0.5230   -4.6810 h1        1 IXS      0.165700
     49 H223        3.3000   -1.1390   -4.5160 h1        1 IXS      0.165700
     50 H291        2.6580    3.2830   -4.6120 h1        1 IXS      0.066367
     51 H292        1.6330    3.4600   -6.1140 h1        1 IXS      0.066367
     52 H293        2.8660    2.1370   -6.0270 h1        1 IXS      0.066367
     53 H20        -1.0140    0.3440   -5.3940 ha        1 IXS      0.209000
     54 HN13       -2.7180   -0.8080   -4.2390 hn        1 IXS      0.474300
     55 H12        -2.3180   -0.8240   -6.6490 hx        1 IXS      0.086700
     56 H501       -5.3290   -1.6660   -6.7180 hc        1 IXS      0.088367
     57 H502       -4.5600   -0.2020   -7.4670 hc        1 IXS      0.088367
     58 H503       -4.1420   -1.8630   -8.0750 hc        1 IXS      0.088367
     59 H6         -4.7070   -3.6920   -6.4390 ha        1 IXS      0.151000
     60 H7         -3.9620   -5.9940   -5.8970 ha        1 IXS      0.186000
     61 H4         -0.8290   -2.1470   -5.1950 ha        1 IXS      0.151000
     62 H3         -0.0940   -4.4590   -4.6450 ha        1 IXS      0.186000
     63 H18         0.3490    4.2870   -4.2100 ha        1 IXS      0.149000
     64 H16        -3.9260    3.3890   -4.3300 ha        1 IXS      0.192000
     65 HN35       -0.6100    5.5450   -2.4480 hn        1 IXS      0.490800
     66 H36        -2.5710    6.7950   -1.6350 hx        1 IXS      0.126700
     67 H561        0.1630    8.2980   -1.7130 hc        1 IXS      0.098200
     68 H562       -1.1550    8.4130   -0.4650 hc        1 IXS      0.098200
     69 H65        -1.6430    6.5110    1.0420 ha        1 IXS      0.132500
     70 H64        -0.5810    4.6880    2.3580 ha        1 IXS      0.178500
     71 H63         1.6180    3.7360    1.6370 ha        1 IXS      0.188000
     72 H62         2.7420    4.6080   -0.4160 ha        1 IXS      0.178500
     73 H61         1.7010    6.4530   -1.7220 ha        1 IXS      0.132500
     74 H371       -1.7910    9.4340   -2.4690 hx        1 IXS      0.134200
     75 H372       -1.8170    8.5340   -4.0600 hx        1 IXS      0.134200
     76 HN38       -4.0860    7.9080   -3.6480 hn        1 IXS      0.485800
     77 H39        -3.3180   10.7610   -3.3600 hx        1 IXS      0.153700
     78 H81        -5.2350    9.3630   -5.4110 hc        1 IXS      0.111033
     79 H82        -3.4340    9.4730   -5.6290 hc        1 IXS      0.111033
     80 H83        -4.4020   10.9790   -5.5470 hc        1 IXS      0.111033
     81 HN9        -7.0050   11.5960   -3.6560 hn        1 IXS      0.488800
     82 H101       -5.0410   13.0140   -1.9070 hx        1 IXS      0.117200
     83 H102       -6.6370   12.2630   -1.3530 hx        1 IXS      0.117200
     84 H51        -6.2990   14.5310   -3.4810 hc        1 IXS      0.080700
     85 H521       -8.8320   14.7090   -3.1460 hc        1 IXS      0.074367
     86 H522       -8.3180   13.2240   -4.0270 hc        1 IXS      0.074367
     87 H523       -8.8000   13.1320   -2.2690 hc        1 IXS      0.074367
     88 H531       -7.3850   14.5540   -0.5720 hc        1 IXS      0.074367
     89 H532       -7.2880   15.9500   -1.7220 hc        1 IXS      0.074367
     90 H533       -5.7640   15.1850   -1.1110 hc        1 IXS      0.074367
     91 H132       -4.3570   -1.0360   -4.4850 hn        1 IXS      0.474300
     92 H352       -0.5040    6.5620   -3.7690 hn        1 IXS      0.490800
     93 H382       -4.0830    8.5480   -2.1060 hn        1 IXS      0.485800
     94 H92        -5.5070   12.1770   -4.1310 hn        1 IXS      0.488800
@<TRIPOS>BOND
     1    1    2 2   
     2    2    3 2   
     3    2    4 1   
     4    2    5 1   
     5    4   47 1   
     6    4   48 1   
     7    4   49 1   
     8    5    6 1   
     9    5    7 1   
    10    6   50 1   
    11    6   51 1   
    12    6   52 1   
    13    7    8 ar  
    14    7   22 ar  
    15    8    9 ar  
    16    8   53 1   
    17    9   10 1   
    18    9   24 ar  
    19   10   11 2   
    20   10   12 1   
    21   12   13 1   
    22   12   54 1   
    23   12   91 1   
    24   13   14 1   
    25   13   15 1   
    26   13   55 1   
    27   14   56 1   
    28   14   57 1   
    29   14   58 1   
    30   15   16 ar  
    31   15   18 ar  
    32   16   17 ar  
    33   16   59 1   
    34   17   20 ar  
    35   17   60 1   
    36   18   19 ar  
    37   18   61 1   
    38   19   20 ar  
    39   19   62 1   
    40   20   21 1   
    41   22   23 ar  
    42   22   63 1   
    43   23   24 ar  
    44   23   25 1   
    45   24   64 1   
    46   25   26 2   
    47   25   27 1   
    48   27   28 1   
    49   27   65 1   
    50   27   92 1   
    51   28   29 1   
    52   28   36 1   
    53   28   66 1   
    54   29   30 1   
    55   29   67 1   
    56   29   68 1   
    57   30   31 ar  
    58   30   35 ar  
    59   31   32 ar  
    60   31   69 1   
    61   32   33 ar  
    62   32   70 1   
    63   33   34 ar  
    64   33   71 1   
    65   34   35 ar  
    66   34   72 1   
    67   35   73 1   
    68   36   37 1   
    69   36   74 1   
    70   36   75 1   
    71   37   38 1   
    72   37   76 1   
    73   37   93 1   
    74   38   39 1   
    75   38   40 1   
    76   38   77 1   
    77   39   78 1   
    78   39   79 1   
    79   39   80 1   
    80   40   41 2   
    81   40   42 1   
    82   42   43 1   
    83   42   81 1   
    84   42   94 1   
    85   43   44 1   
    86   43   82 1   
    87   43   83 1   
    88   44   45 1   
    89   44   46 1   
    90   44   84 1   
    91   45   85 1   
    92   45   86 1   
    93   45   87 1   
    94   46   88 1   
    95   46   89 1   
    96   46   90 1   
@<TRIPOS>SUBSTRUCTURE
     1 IXS         1 TEMP              0 ****  ****    0 ROOT
