@<TRIPOS>MOLECULE
IXV
   58    61     1     0     0
SMALL
bcc


@<TRIPOS>ATOM
      1 O1           0.0000     0.0000     0.0000 o          1 IXV      -0.595100
      2 C18          1.2130     0.0000     0.0000 c          1 IXV       0.542100
      3 C19          1.9650     0.0000     1.3060 c3         1 IXV      -0.103400
      4 C20          0.9710     0.0010     2.4680 c3         1 IXV       0.178800
      5 N2           1.7020     0.0010     3.7380 nu         1 IXV      -0.443600
      6 C21          1.0030     0.0010     4.9460 ca         1 IXV       0.068600
      7 C23          1.6950     0.0010     6.1510 ca         1 IXV      -0.189000
      8 C25          1.0010     0.0030     7.3450 ca         1 IXV      -0.049500
      9 C26         -0.3820     0.0030     7.3420 ca         1 IXV      -0.164000
     10 C24         -1.0740     0.0040     6.1450 ca         1 IXV      -0.049500
     11 C22         -0.3860     0.0080     4.9470 ca         1 IXV      -0.189000
     12 N1           1.8870    -0.0070    -1.1670 ns         1 IXV       0.030900
     13 C2           1.1950    -0.0130    -2.3670 cc         1 IXV       0.010500
     14 S           -0.5030    -0.0050    -2.5020 ss         1 IXV      -0.140800
     15 C3           1.7850    -0.0190    -3.6030 cd         1 IXV      -0.233600
     16 C1           0.8190    -0.0240    -4.6880 cd         1 IXV       0.002000
     17 C4           1.1970    -0.0330    -6.1210 ca         1 IXV      -0.019000
     18 C6           0.6250    -0.9600    -6.9910 ca         1 IXV      -0.092000
     19 C8           0.9810    -0.9630    -8.3240 ca         1 IXV      -0.098000
     20 C9           1.9030    -0.0480    -8.7990 ca         1 IXV      -0.098000
     21 C7           2.4740     0.8750    -7.9420 ca         1 IXV      -0.098000
     22 C5           2.1210     0.8920    -6.6070 ca         1 IXV      -0.092000
     23 C           -0.4470    -0.0190    -4.2550 cc         1 IXV      -0.043100
     24 C10          3.2350    -0.0200    -3.8070 c          1 IXV       0.612700
     25 O            3.8380    -1.0750    -3.8870 o          1 IXV      -0.634100
     26 N            3.9030     1.1460    -3.9070 ns         1 IXV      -0.201900
     27 C11          5.3540     1.1460    -4.1130 c3         1 IXV       0.111300
     28 C12          5.8510     2.5660    -4.1890 ca         1 IXV      -0.128300
     29 C14          5.9070     3.2140    -5.4100 ca         1 IXV      -0.085000
     30 C16          6.3630     4.5160    -5.4810 ca         1 IXV      -0.100500
     31 C17          6.7640     5.1720    -4.3310 ca         1 IXV      -0.090000
     32 C15          6.7070     4.5240    -3.1110 ca         1 IXV      -0.100500
     33 C13          6.2470     3.2230    -3.0400 ca         1 IXV      -0.085000
     34 H1           2.5890     0.8840     1.3630 hc         1 IXV       0.034200
     35 H2           2.5870    -0.8850     1.3640 hc         1 IXV       0.034200
     36 H3           0.3490     0.8870     2.4100 h1         1 IXV       0.031700
     37 H4           0.3470    -0.8820     2.4100 h1         1 IXV       0.031700
     38 H5           2.7030     0.0000     3.7380 hn         1 IXV       0.289800
     39 H6           2.7780     0.0010     6.1540 ha         1 IXV       0.111500
     40 H7           1.5400     0.0030     8.2850 ha         1 IXV       0.097500
     41 H8          -0.9240     0.0030     8.2800 ha         1 IXV       0.103000
     42 H9          -2.1570     0.0060     6.1460 ha         1 IXV       0.097500
     43 H10         -0.9300     0.0080     4.0100 ha         1 IXV       0.111500
     44 H11          2.8880    -0.0150    -1.1660 hn         1 IXV       0.174500
     45 H12         -0.0970    -1.6780    -6.6200 ha         1 IXV       0.107000
     46 H13          0.5370    -1.6840    -9.0000 ha         1 IXV       0.102000
     47 H14          2.1800    -0.0560    -9.8460 ha         1 IXV       0.102000
     48 H15          3.1930     1.5910    -8.3200 ha         1 IXV       0.102000
     49 H16          2.5690     1.6150    -5.9360 ha         1 IXV       0.107000
     50 H17         -1.3180    -0.0210    -4.8990 h4         1 IXV       0.157000
     51 H18          3.4120     2.0130    -3.8150 hn         1 IXV       0.183500
     52 H19          5.5870     0.6310    -5.0370 h1         1 IXV       0.030200
     53 H20          5.8350     0.6390    -3.2850 h1         1 IXV       0.030200
     54 H21          5.5930     2.7000    -6.3110 ha         1 IXV       0.106500
     55 H22          6.4070     5.0230    -6.4370 ha         1 IXV       0.105500
     56 H23          7.1230     6.1920    -4.3870 ha         1 IXV       0.105000
     57 H24          7.0190     5.0380    -2.2100 ha         1 IXV       0.105500
     58 H25          6.2030     2.7160    -2.0830 ha         1 IXV       0.106500
@<TRIPOS>BOND
     1     1     2 2   
     2     2     3 1   
     3     2    12 1   
     4     3     4 1   
     5     3    34 1   
     6     3    35 1   
     7     4     5 1   
     8     4    36 1   
     9     4    37 1   
    10     5     6 1   
    11     5    38 1   
    12     6     7 ar  
    13     6    11 ar  
    14     7     8 ar  
    15     7    39 1   
    16     8     9 ar  
    17     8    40 1   
    18     9    10 ar  
    19     9    41 1   
    20    10    11 ar  
    21    10    42 1   
    22    11    43 1   
    23    12    13 1   
    24    12    44 1   
    25    13    14 1   
    26    13    15 2   
    27    14    23 1   
    28    15    16 1   
    29    15    24 1   
    30    16    17 1   
    31    16    23 2   
    32    17    18 ar  
    33    17    22 ar  
    34    18    19 ar  
    35    18    45 1   
    36    19    20 ar  
    37    19    46 1   
    38    20    21 ar  
    39    20    47 1   
    40    21    22 ar  
    41    21    48 1   
    42    22    49 1   
    43    23    50 1   
    44    24    25 2   
    45    24    26 1   
    46    26    27 1   
    47    26    51 1   
    48    27    28 1   
    49    27    52 1   
    50    27    53 1   
    51    28    29 ar  
    52    28    33 ar  
    53    29    30 ar  
    54    29    54 1   
    55    30    31 ar  
    56    30    55 1   
    57    31    32 ar  
    58    31    56 1   
    59    32    33 ar  
    60    32    57 1   
    61    33    58 1   
@<TRIPOS>SUBSTRUCTURE
     1 IXV         1 TEMP              0 ****  ****    0 ROOT
