@<TRIPOS>MOLECULE
molecule
   58    61     1     0     0
SMALL
bcc


@<TRIPOS>ATOM
      1 O1           0.0000     0.0000     0.0000 o          1 IXV      -0.583100
      2 C18          1.2130     0.0000     0.0000 c          1 IXV       0.656100
      3 C19          1.9650     0.0000     1.3060 c3         1 IXV      -0.170400
      4 C20          0.9710     0.0010     2.4680 c3         1 IXV       0.252800
      5 N2           1.7020     0.0010     3.7380 nu         1 IXV      -0.837600
      6 C21          1.0030     0.0010     4.9460 ca         1 IXV       0.203600
      7 C23          1.6950     0.0010     6.1510 ca         1 IXV      -0.206500
      8 C25          1.0010     0.0030     7.3450 ca         1 IXV      -0.082500
      9 C26         -0.3820     0.0030     7.3420 ca         1 IXV      -0.184000
     10 C24         -1.0740     0.0040     6.1450 ca         1 IXV      -0.082500
     11 C22         -0.3860     0.0080     4.9470 ca         1 IXV      -0.206500
     12 N1           1.8870    -0.0070    -1.1670 ns         1 IXV      -0.431100
     13 C2           1.1950    -0.0130    -2.3670 cc         1 IXV       0.088500
     14 S           -0.5030    -0.0050    -2.5020 ss         1 IXV       0.037200
     15 C3           1.7850    -0.0190    -3.6030 cd         1 IXV      -0.233600
     16 C1           0.8190    -0.0240    -4.6880 cd         1 IXV      -0.009000
     17 C4           1.1970    -0.0330    -6.1210 ca         1 IXV      -0.022000
     18 C6           0.6250    -0.9600    -6.9910 ca         1 IXV      -0.111000
     19 C8           0.9810    -0.9630    -8.3240 ca         1 IXV      -0.128500
     20 C9           1.9030    -0.0480    -8.7990 ca         1 IXV      -0.124000
     21 C7           2.4740     0.8750    -7.9420 ca         1 IXV      -0.128500
     22 C5           2.1210     0.8920    -6.6070 ca         1 IXV      -0.111000
     23 C           -0.4470    -0.0190    -4.2550 cc         1 IXV      -0.140100
     24 C10          3.2350    -0.0200    -3.8070 c          1 IXV       0.688700
     25 O            3.8380    -1.0750    -3.8870 o          1 IXV      -0.594100
     26 N            3.9030     1.1460    -3.9070 ns         1 IXV      -0.585900
     27 C11          5.3540     1.1460    -4.1130 c3         1 IXV       0.158300
     28 C12          5.8510     2.5660    -4.1890 ca         1 IXV      -0.119300
     29 C14          5.9070     3.2140    -5.4100 ca         1 IXV      -0.113000
     30 C16          6.3630     4.5160    -5.4810 ca         1 IXV      -0.129500
     31 C17          6.7640     5.1720    -4.3310 ca         1 IXV      -0.118000
     32 C15          6.7070     4.5240    -3.1110 ca         1 IXV      -0.129500
     33 C13          6.2470     3.2230    -3.0400 ca         1 IXV      -0.113000
     34 H1           2.5890     0.8840     1.3630 hc         1 IXV       0.071700
     35 H2           2.5870    -0.8850     1.3640 hc         1 IXV       0.071700
     36 H3           0.3490     0.8870     2.4100 h1         1 IXV       0.057700
     37 H4           0.3470    -0.8820     2.4100 h1         1 IXV       0.057700
     38 H5           2.7030     0.0000     3.7380 hn         1 IXV       0.433800
     39 H6           2.7780     0.0010     6.1540 ha         1 IXV       0.130000
     40 H7           1.5400     0.0030     8.2850 ha         1 IXV       0.127500
     41 H8          -0.9240     0.0030     8.2800 ha         1 IXV       0.127000
     42 H9          -2.1570     0.0060     6.1460 ha         1 IXV       0.127500
     43 H10         -0.9300     0.0080     4.0100 ha         1 IXV       0.130000
     44 H11          2.8880    -0.0150    -1.1660 hn         1 IXV       0.340500
     45 H12         -0.0970    -1.6780    -6.6200 ha         1 IXV       0.134000
     46 H13          0.5370    -1.6840    -9.0000 ha         1 IXV       0.129000
     47 H14          2.1800    -0.0560    -9.8460 ha         1 IXV       0.128000
     48 H15          3.1930     1.5910    -8.3200 ha         1 IXV       0.129000
     49 H16          2.5690     1.6150    -5.9360 ha         1 IXV       0.134000
     50 H17         -1.3180    -0.0210    -4.8990 h4         1 IXV       0.177000
     51 H18          3.4120     2.0130    -3.8150 hn         1 IXV       0.321500
     52 H19          5.5870     0.6310    -5.0370 h1         1 IXV       0.059200
     53 H20          5.8350     0.6390    -3.2850 h1         1 IXV       0.059200
     54 H21          5.5930     2.7000    -6.3110 ha         1 IXV       0.133000
     55 H22          6.4070     5.0230    -6.4370 ha         1 IXV       0.133000
     56 H23          7.1230     6.1920    -4.3870 ha         1 IXV       0.133000
     57 H24          7.0190     5.0380    -2.2100 ha         1 IXV       0.133000
     58 H25          6.2030     2.7160    -2.0830 ha         1 IXV       0.133000
@<TRIPOS>BOND
     1     1     2 2
     2    10    11 ar
     3    10     9 ar
     4    11     6 ar
     5    14    23 1
     6    14    13 1
     7    23    16 2
     8     4     5 1
     9     4     3 1
    10     9     8 ar
    11     2     3 1
    12     2    12 1
    13     6     5 1
    14     6     7 ar
    15    13    12 1
    16    13    15 2
    17    16    15 1
    18    16    17 1
    19     8     7 ar
    20    15    24 1
    21    17    18 ar
    22    17    22 ar
    23    18    19 ar
    24    22    21 ar
    25    19    20 ar
    26    21    20 ar
    27    26    24 1
    28    26    27 1
    29    24    25 2
    30    27    28 1
    31    29    28 ar
    32    29    30 ar
    33    28    33 ar
    34    30    31 ar
    35    33    32 ar
    36    31    32 ar
    37     3    34 1
    38     3    35 1
    39     4    36 1
    40     4    37 1
    41     5    38 1
    42     7    39 1
    43     8    40 1
    44     9    41 1
    45    10    42 1
    46    11    43 1
    47    12    44 1
    48    18    45 1
    49    19    46 1
    50    20    47 1
    51    21    48 1
    52    22    49 1
    53    23    50 1
    54    26    51 1
    55    27    52 1
    56    27    53 1
    57    29    54 1
    58    30    55 1
    59    31    56 1
    60    32    57 1
    61    33    58 1
@<TRIPOS>SUBSTRUCTURE
     1 IXV         1 TEMP              0 ****  ****    0 ROOT
