@<TRIPOS>MOLECULE
IXW
   19    19     1     0     0
SMALL
bcc


@<TRIPOS>ATOM
      1 O2         -0.2000    0.4730    0.1330 o         1 IXW     -0.542000
      2 C3          1.0100    0.2750    0.0020 c         1 IXW      0.637100
      3 O1          1.7600    0.0450    1.1200 os        1 IXW     -0.441900
      4 C2          1.0580    0.0440    2.3770 c3        1 IXW      0.139400
      5 C1          2.0920   -0.2400    3.4380 c3        1 IXW     -0.101100
      6 C4          1.8340    0.2700   -1.2490 c3        1 IXW     -0.128400
      7 C5          1.0010   -0.0490   -2.4550 cx        1 IXW      0.061100
      8 O3          1.3400   -1.2710   -3.1370 os        1 IXW     -0.401600
      9 C6          1.6170   -0.0350   -3.8090 cx        1 IXW      0.055400
     10 H1          0.2620   -0.7450    2.3420 h1        1 IXW      0.053200
     11 H2          0.5750    1.0460    2.5170 h1        1 IXW      0.053200
     12 H3          1.5930   -0.2530    4.4360 hc        1 IXW      0.048700
     13 H4          2.5780   -1.2290    3.2570 hc        1 IXW      0.048700
     14 H5          2.8850    0.5460    3.4340 hc        1 IXW      0.048700
     15 H6          2.6730   -0.4700   -1.1410 hc        1 IXW      0.094200
     16 H7          2.2850    1.2930   -1.3610 hc        1 IXW      0.094200
     17 H8         -0.0900    0.1120   -2.3270 h1        1 IXW      0.120700
     18 H9          0.9990    0.1520   -4.7060 h1        1 IXW      0.080700
     19 H10         2.6930    0.1860   -3.9360 h1        1 IXW      0.080700
@<TRIPOS>BOND
     1    1    2 2   
     2    2    3 1   
     3    2    6 1   
     4    3    4 1   
     5    4    5 1   
     6    4   10 1   
     7    4   11 1   
     8    5   12 1   
     9    5   13 1   
    10    5   14 1   
    11    6    7 1   
    12    6   15 1   
    13    6   16 1   
    14    7    8 1   
    15    7    9 1   
    16    7   17 1   
    17    8    9 1   
    18    9   18 1   
    19    9   19 1   
@<TRIPOS>SUBSTRUCTURE
     1 IXW         1 TEMP              0 ****  ****    0 ROOT
