@<TRIPOS>MOLECULE
molecule
   19    19     1     0     0
SMALL
bcc


@<TRIPOS>ATOM
      1 O2           0.0000     0.0000     0.0000 o          1 IXW      -0.546000
      2 C3           1.2080     0.0000     0.0000 c          1 IXW       0.636100
      3 O1           1.8800     0.0000     1.1620 os         1 IXW      -0.431900
      4 C2           1.0900    -0.0000     2.3800 c3         1 IXW       0.146400
      5 C1           2.0220    -0.0010     3.5930 c3         1 IXW      -0.096100
      6 C4           1.9600    -0.0060    -1.3050 c3         1 IXW      -0.113400
      7 C5           0.9650    -0.0110    -2.4690 cx         1 IXW       0.050100
      8 O3           0.9980    -1.1210    -3.3670 op         1 IXW      -0.378600
      9 C6           1.5270     0.1010    -3.8870 cx         1 IXW       0.036400
     10 H1           0.4650    -0.8850     2.4050 h1         1 IXW       0.050200
     11 H2           0.4650     0.8840     2.4060 h1         1 IXW       0.050200
     12 H3           1.4330    -0.0010     4.5020 hc         1 IXW       0.048033
     13 H4           2.6470     0.8840     3.5680 hc         1 IXW       0.048033
     14 H5           2.6470    -0.8850     3.5670 hc         1 IXW       0.048033
     15 H6           2.5830    -0.8900    -1.3590 hc         1 IXW       0.085200
     16 H7           2.5830     0.8790    -1.3670 hc         1 IXW       0.085200
     17 H8          -0.0130     0.4340    -2.3300 h1         1 IXW       0.118700
     18 H9           2.6060     0.1510    -3.9630 h1         1 IXW       0.082200
     19 H10          0.8990     0.6180    -4.6020 h1         1 IXW       0.082200
@<TRIPOS>BOND
     1     5     4 1
     2     4     3 1
     3     1     2 2
     4     8     7 1
     5     8     9 1
     6     3     2 1
     7     2     6 1
     8     7     9 1
     9     7     6 1
    10     4    10 1
    11     4    11 1
    12     5    12 1
    13     5    13 1
    14     5    14 1
    15     6    15 1
    16     6    16 1
    17     7    17 1
    18     9    18 1
    19     9    19 1
@<TRIPOS>SUBSTRUCTURE
     1 IXW         1 TEMP              0 ****  ****    0 ROOT
