@<TRIPOS>MOLECULE
molecule
   45    47     1     0     0
SMALL
bcc


@<TRIPOS>ATOM
      1 C11          0.0000     0.0000     0.0000 ca         1 IXX       0.186600
      2 C10          1.4000     0.0000     0.0000 ca         1 IXX      -0.155500
      3 C9           2.1070     0.0000     1.1810 ca         1 IXX      -0.115500
      4 C8           1.4200     0.0030     2.3820 ca         1 IXX      -0.146500
      5 C7           0.0440    -0.0070     2.3840 ca         1 IXX      -0.114000
      6 C2          -2.6680     2.6510    -2.7930 ca         1 IXX      -0.115500
      7 C6          -2.1810    -0.0970     1.3810 c3         1 IXX      -0.026600
      8 C5          -2.9530    -0.4430     0.1320 c3         1 IXX      -0.026600
      9 N1          -0.6030     0.0290    -1.2520 nh         1 IXX      -0.631400
     10 C3          -3.8680     2.4120    -2.1490 ca         1 IXX      -0.146500
     11 N2          -0.9810    -4.4080    -3.2810 n3         1 IXX      -0.730600
     12 C4          -3.9700     1.4060    -1.2050 ca         1 IXX      -0.114000
     13 C1          -1.5620     1.8720    -2.5020 ca         1 IXX      -0.155500
     14 C12         -0.6870    -0.0220     1.1930 ca         1 IXX      -0.107300
     15 C13         -2.8590     0.6320    -0.9070 ca         1 IXX      -0.107300
     16 C14         -1.6780     0.8580    -1.5610 ca         1 IXX       0.186600
     17 C15         -0.0830    -0.8560    -2.2960 c3         1 IXX       0.239800
     18 C16         -0.8180    -2.1960    -2.2420 c3         1 IXX      -0.108400
     19 C17         -0.2750    -3.1210    -3.3330 c3         1 IXX       0.162800
     20 C18         -2.3980    -4.2460    -3.6350 c3         1 IXX       0.150600
     21 C19         -0.3320    -5.4000    -4.1490 c3         1 IXX       0.150600
     22 H10          1.9340    -0.0030    -0.9420 ha         1 IXX       0.134000
     23 H9           3.1900     0.0080     1.1700 ha         1 IXX       0.129500
     24 H8           1.9640     0.0030     3.3180 ha         1 IXX       0.128000
     25 H7          -0.4850    -0.0040     3.3290 ha         1 IXX       0.129000
     26 H2          -2.5960     3.4400    -3.5320 ha         1 IXX       0.129500
     27 H61         -2.3840    -0.8660     2.1180 hc         1 IXX       0.053450
     28 H51         -3.9950    -0.5660     0.4000 hc         1 IXX       0.053450
     29 H3          -4.7320     3.0230    -2.3790 ha         1 IXX       0.128000
     30 H4          -4.9120     1.2240    -0.7030 ha         1 IXX       0.129000
     31 H1          -0.6180     2.0510    -3.0020 ha         1 IXX       0.134000
     32 H151         0.9770    -1.0180    -2.1370 h1         1 IXX       0.047700
     33 H152        -0.2360    -0.3990    -3.2660 h1         1 IXX       0.047700
     34 H161        -1.8770    -2.0340    -2.4010 hc         1 IXX       0.058700
     35 H162        -0.6650    -2.6530    -1.2720 hc         1 IXX       0.058700
     36 H171         0.7840    -3.2840    -3.1740 h1         1 IXX       0.031200
     37 H172        -0.4270    -2.6640    -4.3030 h1         1 IXX       0.031200
     38 H181        -2.7580    -5.1520    -4.1090 h1         1 IXX       0.032200
     39 H182        -2.5070    -3.4130    -4.3190 h1         1 IXX       0.032200
     40 H183        -2.9750    -4.0550    -2.7380 h1         1 IXX       0.032200
     41 H191        -0.8500    -6.3480    -4.0650 h1         1 IXX       0.032200
     42 H192        -0.3680    -5.0600    -5.1770 h1         1 IXX       0.032200
     43 H193         0.7000    -5.5250    -3.8460 h1         1 IXX       0.032200
     44 H52         -2.5370    -1.3530    -0.2830 hc         1 IXX       0.053450
     45 H62         -2.5210     0.8730     1.7220 hc         1 IXX       0.053450
@<TRIPOS>BOND
     1     1     9 1
     2     1     2 ar
     3     1    14 ar
     4     2     3 ar
     5     2    22 1
     6     3     4 ar
     7     3    23 1
     8     4     5 ar
     9     4    24 1
    10     5    14 ar
    11     5    25 1
    12     6    13 ar
    13     6    10 ar
    14     6    26 1
    15     7    14 1
    16     7     8 1
    17     7    27 1
    18     8    15 1
    19     8    28 1
    20     9    17 1
    21     9    16 1
    22    10    12 ar
    23    10    29 1
    24    11    21 1
    25    11    20 1
    26    11    19 1
    27    12    15 ar
    28    12    30 1
    29    13    16 ar
    30    13    31 1
    31    15    16 ar
    32    17    18 1
    33    17    32 1
    34    17    33 1
    35    18    19 1
    36    18    34 1
    37    18    35 1
    38    19    36 1
    39    19    37 1
    40    20    38 1
    41    20    39 1
    42    20    40 1
    43    21    41 1
    44    21    42 1
    45    21    43 1
    46     8    44 1
    47     7    45 1
@<TRIPOS>SUBSTRUCTURE
     1 IXX         1 TEMP              0 ****  ****    0 ROOT
