@<TRIPOS>MOLECULE
molecule
   65    69     1     0     0
SMALL
bcc


@<TRIPOS>ATOM
      1 C1           0.0000     0.0000     0.0000 c3         1 IXY       0.003900
      2 C2           1.5160     0.0000     0.0000 cc         1 IXY      -0.104400
      3 C3           2.2710     0.0000     1.1060 cd         1 IXY      -0.056300
      4 C4           1.6970     0.0010     2.5140 c3         1 IXY      -0.013100
      5 C5           0.2290     0.4280     2.4460 c3         1 IXY      -0.083400
      6 C6          -0.4920    -0.4130     1.3900 c3         1 IXY      -0.081400
      7 S7           2.5210    -0.0010    -1.4400 ss         1 IXY       0.029200
      8 C8           3.9630    -0.0010    -0.5330 cc         1 IXY       0.095500
      9 C9           3.6920    -0.0000     0.8060 cd         1 IXY      -0.244600
     10 C10          4.7320    -0.0000     1.8390 c          1 IXY       0.688700
     11 O11          5.1640    -1.0540     2.2670 o          1 IXY      -0.602100
     12 N12          5.2110     1.1670     2.3120 ns         1 IXY      -0.583900
     13 C13          6.2510     1.1670     3.3450 c3         1 IXY       0.158300
     14 C14          6.6080     2.5880     3.6980 ca         1 IXY      -0.118300
     15 C15          5.9290     3.2400     4.7090 ca         1 IXY      -0.112500
     16 C16          6.2570     4.5440     5.0330 ca         1 IXY      -0.130000
     17 C17          7.2630     5.1940     4.3460 ca         1 IXY      -0.119000
     18 C18          7.9440     4.5420     3.3340 ca         1 IXY      -0.130000
     19 C19          7.6190     3.2370     3.0130 ca         1 IXY      -0.112500
     20 N20          5.2370    -0.0020    -1.0790 ns         1 IXY      -0.438100
     21 C21          5.3970    -0.0020    -2.4190 c          1 IXY       0.648100
     22 O22          4.4260    -0.0020    -3.1440 o          1 IXY      -0.565100
     23 C23          6.7820    -0.0040    -3.0110 c3         1 IXY       0.091800
     24 N24          6.6870    -0.0040    -4.4770 n7         1 IXY      -0.800200
     25 C25          8.0210    -0.0040    -5.0920 c3         1 IXY       0.158800
     26 C26          7.8800    -0.0050    -6.6150 c3         1 IXY      -0.001200
     27 C27          9.2490    -0.0060    -7.2460 cc         1 IXY      -0.157400
     28 C28          9.9360     1.0690    -7.6650 cd         1 IXY      -0.099100
     29 N29         11.1420     0.6790    -8.1820 na         1 IXY      -0.182400
     30 C30         11.2630    -0.6900    -8.1060 ca         1 IXY      -0.038200
     31 C31         10.0860    -1.1780    -7.5110 ca         1 IXY      -0.098800
     32 C32          9.9300    -2.5500    -7.3000 ca         1 IXY      -0.078000
     33 C33         10.9240    -3.4110    -7.6690 ca         1 IXY      -0.157000
     34 C34         12.0900    -2.9340    -8.2520 ca         1 IXY      -0.107000
     35 C35         12.2620    -1.5860    -8.4780 ca         1 IXY      -0.145000
     36 H1          -0.3400     1.0100    -0.1940 hc         1 IXY       0.055200
     37 H2          -0.3400    -0.7400    -0.7140 hc         1 IXY       0.055200
     38 H4           2.2500     0.7000     3.1300 hc         1 IXY       0.056200
     39 H5           1.7660    -0.9950     2.9340 hc         1 IXY       0.056200
     40 H6           0.1700     1.4750     2.1760 hc         1 IXY       0.043700
     41 H7          -0.2370     0.2710     3.4120 hc         1 IXY       0.043700
     42 H8          -1.5520    -0.1990     1.4520 hc         1 IXY       0.050700
     43 H9          -0.2290    -1.4520     1.5470 hc         1 IXY       0.050700
     44 H11          4.8800     2.0330     1.9350 hn         1 IXY       0.323500
     45 H12          5.8840     0.6570     4.2270 h1         1 IXY       0.057700
     46 H13          7.1310     0.6560     2.9720 h1         1 IXY       0.057700
     47 H14          5.1400     2.7300     5.2480 ha         1 IXY       0.133500
     48 H15          5.7240     5.0550     5.8260 ha         1 IXY       0.132500
     49 H16          7.5190     6.2160     4.5980 ha         1 IXY       0.132000
     50 H17          8.7350     5.0510     2.7960 ha         1 IXY       0.132500
     51 H18          8.1520     2.7260     2.2210 ha         1 IXY       0.133500
     52 H19          6.0380    -0.0300    -0.4800 hn         1 IXY       0.337500
     53 H20          7.3140    -0.8890    -2.6840 h1         1 IXY       0.054200
     54 H21          7.3150     0.8800    -2.6840 h1         1 IXY       0.054200
     55 H22          6.1810     0.8050    -4.7790 hn         1 IXY       0.367800
     56 H24          8.5620     0.8800    -4.7790 h1         1 IXY       0.035200
     57 H25          8.5620    -0.8890    -4.7780 h1         1 IXY       0.035200
     58 H26          7.3380    -0.8900    -6.9280 hc         1 IXY       0.055700
     59 H27          7.3390     0.8800    -6.9290 hc         1 IXY       0.055700
     60 H28          9.5870     2.0930    -7.6040 h4         1 IXY       0.164000
     61 H29         11.8330     1.2970    -8.5590 hn         1 IXY       0.295700
     62 H30          9.0230    -2.9300    -6.8450 ha         1 IXY       0.133000
     63 H31         10.8050    -4.4740    -7.4980 ha         1 IXY       0.130000
     64 H32         12.8700    -3.6290    -8.5390 ha         1 IXY       0.130000
     65 H33         13.1750    -1.2230    -8.9340 ha         1 IXY       0.125000
@<TRIPOS>BOND
     1     1     2 1
     2     1     6 1
     3     2     3 2
     4     2     7 1
     5     3     4 1
     6     3     9 1
     7     4     5 1
     8     5     6 1
     9     7     8 1
    10     8     9 2
    11     8    20 1
    12     9    10 1
    13    10    11 2
    14    10    12 1
    15    12    13 1
    16    13    14 1
    17    14    15 ar
    18    14    19 ar
    19    15    16 ar
    20    16    17 ar
    21    17    18 ar
    22    18    19 ar
    23    20    21 1
    24    21    22 2
    25    21    23 1
    26    23    24 1
    27    24    25 1
    28    25    26 1
    29    26    27 1
    30    27    28 2
    31    27    31 1
    32    28    29 1
    33    29    30 1
    34    30    31 ar
    35    30    35 ar
    36    31    32 ar
    37    32    33 ar
    38    33    34 ar
    39    34    35 ar
    40     1    36 1
    41     1    37 1
    42     4    38 1
    43     4    39 1
    44     5    40 1
    45     5    41 1
    46     6    42 1
    47     6    43 1
    48    12    44 1
    49    13    45 1
    50    13    46 1
    51    15    47 1
    52    16    48 1
    53    17    49 1
    54    18    50 1
    55    19    51 1
    56    20    52 1
    57    23    53 1
    58    23    54 1
    59    24    55 1
    60    25    56 1
    61    25    57 1
    62    26    58 1
    63    26    59 1
    64    28    60 1
    65    29    61 1
    66    32    62 1
    67    33    63 1
    68    34    64 1
    69    35    65 1
@<TRIPOS>SUBSTRUCTURE
     1 IXY         1 TEMP              0 ****  ****    0 ROOT
