@<TRIPOS>MOLECULE
molecule
   58    61     1     0     0
SMALL
bcc


@<TRIPOS>ATOM
      1 O1           0.0000     0.0000     0.0000 o          1 IXZ      -0.563100
      2 C18          1.2130     0.0000     0.0000 c          1 IXZ       0.648100
      3 C19          1.9660     0.0000     1.3050 c3         1 IXZ       0.088800
      4 N2           1.0110     0.0010     2.4210 n7         1 IXZ      -0.793200
      5 C20          1.7110     0.0020     3.7130 c3         1 IXZ       0.205100
      6 C21          0.7010     0.0020     4.8320 ca         1 IXZ      -0.088300
      7 C23          0.2340     1.1990     5.3400 ca         1 IXZ      -0.111500
      8 C25         -0.6920     1.2000     6.3670 ca         1 IXZ      -0.128500
      9 C26         -1.1510     0.0020     6.8840 ca         1 IXZ      -0.123000
     10 C24         -0.6850    -1.1950     6.3740 ca         1 IXZ      -0.128500
     11 C22          0.2380    -1.1950     5.3450 ca         1 IXZ      -0.111500
     12 N1           1.8870    -0.0070    -1.1670 ns         1 IXZ      -0.437100
     13 C2           1.1940    -0.0130    -2.3680 cc         1 IXZ       0.092500
     14 S           -0.5050    -0.0130    -2.5020 ss         1 IXZ       0.038200
     15 C3           1.7830    -0.0140    -3.6020 cc         1 IXZ      -0.237600
     16 C1           0.8180    -0.0150    -4.6890 cc         1 IXZ      -0.010000
     17 C4           1.1940    -0.0170    -6.1220 ca         1 IXZ      -0.021000
     18 C6           2.1270     0.9030    -6.6020 ca         1 IXZ      -0.111000
     19 C8           2.4730     0.8950    -7.9370 ca         1 IXZ      -0.129000
     20 C9           1.8990    -0.0210    -8.8000 ca         1 IXZ      -0.125000
     21 C7           0.9730    -0.9350    -8.3290 ca         1 IXZ      -0.129000
     22 C5           0.6220    -0.9410    -6.9950 ca         1 IXZ      -0.111000
     23 C           -0.4480    -0.0230    -4.2550 cd         1 IXZ      -0.142100
     24 C10          3.2340    -0.0140    -3.8080 c          1 IXZ       0.690700
     25 O            3.8360    -1.0680    -3.8930 o          1 IXZ      -0.595100
     26 N            3.9010     1.1540    -3.9030 ns         1 IXZ      -0.585900
     27 C11          5.3520     1.1540    -4.1090 c3         1 IXZ       0.158300
     28 C12          5.8490     2.5750    -4.1800 ca         1 IXZ      -0.118300
     29 C14          5.9030     3.2280    -5.3970 ca         1 IXZ      -0.113000
     30 C16          6.3600     4.5310    -5.4630 ca         1 IXZ      -0.129500
     31 C17          6.7620     5.1810    -4.3110 ca         1 IXZ      -0.119000
     32 C15          6.7050     4.5290    -3.0940 ca         1 IXZ      -0.129500
     33 C13          6.2450     3.2270    -3.0280 ca         1 IXZ      -0.113000
     34 H1           2.5880    -0.8850     1.3630 h1         1 IXZ       0.054200
     35 H2           2.5890     0.8840     1.3630 h1         1 IXZ       0.054200
     36 H3           0.4250    -0.8080     2.3600 hn         1 IXZ       0.375800
     37 H5           2.3330    -0.8820     3.7870 h1         1 IXZ       0.037200
     38 H6           2.3320     0.8870     3.7860 h1         1 IXZ       0.037200
     39 H7           0.5930     2.1370     4.9350 ha         1 IXZ       0.130500
     40 H8          -1.0580     2.1380     6.7650 ha         1 IXZ       0.130500
     41 H9          -1.8760     0.0020     7.6890 ha         1 IXZ       0.130000
     42 H10         -1.0460    -2.1330     6.7780 ha         1 IXZ       0.130500
     43 H11          0.6040    -2.1330     4.9460 ha         1 IXZ       0.130500
     44 H12          2.8870    -0.0370    -1.1670 hn         1 IXZ       0.338500
     45 H13          2.5770     1.6210    -5.9270 ha         1 IXZ       0.134500
     46 H14          3.1970     1.6090    -8.3110 ha         1 IXZ       0.128000
     47 H15          2.1730    -0.0210    -9.8480 ha         1 IXZ       0.128000
     48 H16          0.5280    -1.6520    -9.0090 ha         1 IXZ       0.128000
     49 H17         -0.1020    -1.6580    -6.6270 ha         1 IXZ       0.134500
     50 H18         -1.3190    -0.0260    -4.8990 h4         1 IXZ       0.176000
     51 H19          3.4140     2.0200    -3.7800 hn         1 IXZ       0.322500
     52 H20          5.5850     0.6420    -5.0350 h1         1 IXZ       0.058700
     53 H21          5.8340     0.6440    -3.2830 h1         1 IXZ       0.058700
     54 H22          5.5880     2.7190    -6.3000 ha         1 IXZ       0.133000
     55 H23          6.4030     5.0430    -6.4170 ha         1 IXZ       0.132500
     56 H24          7.1210     6.2020    -4.3620 ha         1 IXZ       0.132000
     57 H25          7.0180     5.0390    -2.1910 ha         1 IXZ       0.132500
     58 H26          6.2010     2.7150    -2.0740 ha         1 IXZ       0.133000
@<TRIPOS>BOND
     1    30    29 ar
     2    30    31 ar
     3    29    28 ar
     4    31    32 ar
     5    28    27 1
     6    28    33 ar
     7    32    33 ar
     8    27    26 1
     9    26    24 1
    10    19    18 ar
    11    19    20 ar
    12    18    17 ar
    13    20    21 ar
    14    17    16 1
    15    17    22 ar
    16    16    15 1
    17    16    23 2
    18    24    15 1
    19    24    25 2
    20    15    13 2
    21    23    14 1
    22    13    14 1
    23    13    12 1
    24    12     2 1
    25    21    22 ar
    26     5     6 1
    27     5     4 1
    28     3     2 1
    29     3     4 1
    30     2     1 2
    31     7     6 ar
    32     7     8 ar
    33     6    11 ar
    34     8     9 ar
    35    11    10 ar
    36     9    10 ar
    37     3    34 1
    38     3    35 1
    39     4    36 1
    40     5    37 1
    41     5    38 1
    42     7    39 1
    43     8    40 1
    44     9    41 1
    45    10    42 1
    46    11    43 1
    47    12    44 1
    48    18    45 1
    49    19    46 1
    50    20    47 1
    51    21    48 1
    52    22    49 1
    53    23    50 1
    54    26    51 1
    55    27    52 1
    56    27    53 1
    57    29    54 1
    58    30    55 1
    59    31    56 1
    60    32    57 1
    61    33    58 1
@<TRIPOS>SUBSTRUCTURE
     1 IXZ         1 TEMP              0 ****  ****    0 ROOT
