@<TRIPOS>MOLECULE
IY5
   31    33     1     0     0
SMALL
bcc


@<TRIPOS>ATOM
      1 CAN          0.0000     0.0000     0.0000 ca         1 IY5      -0.080500
      2 CAO          1.3800     0.0000     0.0000 ca         1 IY5      -0.043000
      3 CAP          2.0740     0.0000     1.1970 ca         1 IY5      -0.197300
      4 CAS          3.5810    -0.0000     1.1890 c3         1 IY5       0.639200
      5 FAU          4.0480     1.3190     1.1860 f          1 IY5      -0.206633
      6 FAV          4.0530    -0.6590     2.3290 f          1 IY5      -0.206633
      7 FAT          4.0420    -0.6600     0.0450 f          1 IY5      -0.206633
      8 CAQ          1.3910     0.0010     2.4000 ca         1 IY5      -0.043000
      9 CAR          0.0120     0.0020     2.4140 ca         1 IY5      -0.080500
     10 CAM         -0.6950     0.0010     1.2110 ca         1 IY5      -0.117900
     11 CAI         -2.1730     0.0010     1.2180 cc         1 IY5       0.335500
     12 NAH         -2.8030    -0.0010     0.0720 nd         1 IY5      -0.503100
     13 CAG         -4.1490    -0.0010     0.0030 ca         1 IY5       0.117400
     14 CAB         -4.8190    -0.0010    -1.2290 ca         1 IY5       0.137100
     15 OAA         -4.1150    -0.0030    -2.3910 oh         1 IY5      -0.481100
     16 CAC         -6.2000    -0.0010    -1.2540 ca         1 IY5      -0.116000
     17 CAD         -6.9320     0.0010    -0.0740 ca         1 IY5      -0.100000
     18 CAE         -6.2930     0.0020     1.1480 ca         1 IY5      -0.035000
     19 CAF         -4.9010     0.0010     1.1990 ca         1 IY5      -0.193600
     20 CAK         -4.1730     0.0020     2.4770 c          1 IY5       0.620100
     21 OAL         -4.7630     0.0030     3.5410 o          1 IY5      -0.659500
     22 NAJ         -2.8190    -0.0030     2.4250 ns         1 IY5      -0.018400
     23 HAN         -0.5430    -0.0000    -0.9370 ha         1 IY5       0.125500
     24 HAO          1.9200    -0.0010    -0.9390 ha         1 IY5       0.122000
     25 HAQ          1.9410     0.0010     3.3330 ha         1 IY5       0.122000
     26 HAR         -0.5210     0.0030     3.3570 ha         1 IY5       0.125500
     27 HAJ         -2.2890    -0.0090     3.2730 hn         1 IY5       0.190500
     28 HAA         -4.1180     0.8640    -2.7620 ho         1 IY5       0.403000
     29 HAC         -6.7180    -0.0020    -2.2050 ha         1 IY5       0.115000
     30 HAD         -8.0140     0.0000    -0.1140 ha         1 IY5       0.109000
     31 HAE         -6.8710     0.0030     2.0640 ha         1 IY5       0.127000
@<TRIPOS>BOND
     1     1     2 ar  
     2     1    10 ar  
     3     1    23 1   
     4     2     3 ar  
     5     2    24 1   
     6     3     4 1   
     7     3     8 ar  
     8     4     5 1   
     9     4     6 1   
    10     4     7 1   
    11     8     9 ar  
    12     8    25 1   
    13     9    10 ar  
    14     9    26 1   
    15    10    11 1   
    16    11    12 2   
    17    11    22 1   
    18    12    13 1   
    19    13    14 ar  
    20    13    19 ar  
    21    14    15 1   
    22    14    16 ar  
    23    15    28 1   
    24    16    17 ar  
    25    16    29 1   
    26    17    18 ar  
    27    17    30 1   
    28    18    19 ar  
    29    18    31 1   
    30    19    20 1   
    31    20    21 2   
    32    20    22 1   
    33    22    27 1   
@<TRIPOS>SUBSTRUCTURE
     1 IY5         1 TEMP              0 ****  ****    0 ROOT
