@<TRIPOS>MOLECULE
molecule
   31    33     1     0     0
SMALL
bcc


@<TRIPOS>ATOM
      1 CAN          0.0000     0.0000     0.0000 ca         1 IY5      -0.097000
      2 CAO          1.3800     0.0000     0.0000 ca         1 IY5      -0.086500
      3 CAP          2.0740     0.0000     1.1970 ca         1 IY5      -0.162300
      4 CAS          3.5810    -0.0000     1.1890 c3         1 IY5       0.672200
      5 FAU          4.0480     1.3190     1.1860 f          1 IY5      -0.220967
      6 FAV          4.0530    -0.6590     2.3290 f          1 IY5      -0.220967
      7 FAT          4.0420    -0.6600     0.0450 f          1 IY5      -0.220967
      8 CAQ          1.3910     0.0010     2.4000 ca         1 IY5      -0.086500
      9 CAR          0.0120     0.0020     2.4140 ca         1 IY5      -0.097000
     10 CAM         -0.6950     0.0010     1.2110 ca         1 IY5      -0.117900
     11 CAI         -2.1730     0.0010     1.2180 cc         1 IY5       0.543500
     12 NAH         -2.8030    -0.0010     0.0720 nd         1 IY5      -0.625100
     13 CAG         -4.1490    -0.0010     0.0030 ca         1 IY5       0.175400
     14 CAB         -4.8190    -0.0010    -1.2290 ca         1 IY5       0.117100
     15 OAA         -4.1150    -0.0030    -2.3910 oh         1 IY5      -0.501100
     16 CAC         -6.2000    -0.0010    -1.2540 ca         1 IY5      -0.128000
     17 CAD         -6.9320     0.0010    -0.0740 ca         1 IY5      -0.136000
     18 CAE         -6.2930     0.0020     1.1480 ca         1 IY5      -0.062000
     19 CAF         -4.9010     0.0010     1.1990 ca         1 IY5      -0.192600
     20 CAK         -4.1730     0.0020     2.4770 c          1 IY5       0.710100
     21 OAL         -4.7630     0.0030     3.5410 o          1 IY5      -0.617500
     22 NAJ         -2.8190    -0.0030     2.4250 ns         1 IY5      -0.473400
     23 HAN         -0.5430    -0.0000    -0.9370 ha         1 IY5       0.155000
     24 HAO          1.9200    -0.0010    -0.9390 ha         1 IY5       0.154500
     25 HAQ          1.9410     0.0010     3.3330 ha         1 IY5       0.154500
     26 HAR         -0.5210     0.0030     3.3570 ha         1 IY5       0.155000
     27 HAJ         -2.2890    -0.0090     3.2730 hn         1 IY5       0.340500
     28 HAA         -4.1180     0.8640    -2.7620 ho         1 IY5       0.420000
     29 HAC         -6.7180    -0.0020    -2.2050 ha         1 IY5       0.145000
     30 HAD         -8.0140     0.0000    -0.1140 ha         1 IY5       0.141000
     31 HAE         -6.8710     0.0030     2.0640 ha         1 IY5       0.158000
@<TRIPOS>BOND
     1     1     2 ar
     2     1    10 ar
     3     2     3 ar
     4     3     4 1
     5     3     8 ar
     6     4     5 1
     7     4     6 1
     8     4     7 1
     9     8     9 ar
    10     9    10 ar
    11    10    11 1
    12    11    12 2
    13    11    22 1
    14    12    13 1
    15    13    14 ar
    16    13    19 ar
    17    14    15 1
    18    14    16 ar
    19    16    17 ar
    20    17    18 ar
    21    18    19 ar
    22    19    20 1
    23    20    21 2
    24    20    22 1
    25     1    23 1
    26     2    24 1
    27     8    25 1
    28     9    26 1
    29    22    27 1
    30    15    28 1
    31    16    29 1
    32    17    30 1
    33    18    31 1
@<TRIPOS>SUBSTRUCTURE
     1 IY5         1 TEMP              0 ****  ****    0 ROOT
