@<TRIPOS>MOLECULE
molecule
   67    70     1     0     0
SMALL
bcc


@<TRIPOS>ATOM
      1 C2           0.0000     0.0000     0.0000 ca         1 IY7      -0.141000
      2 C3           1.3820     0.0000     0.0000 ca         1 IY7      -0.128000
      3 C1          -0.6890     0.0000     1.1980 ca         1 IY7      -0.128000
      4 C4           2.0720     0.0000     1.1960 ca         1 IY7      -0.083000
      5 C12          3.3390     2.6120     2.2730 ca         1 IY7      -0.144000
      6 C13          4.4170     2.9930     1.4920 ca         1 IY7      -0.159000
      7 C16          4.8140     1.3760     3.7120 ca         1 IY7      -0.074600
      8 C6           0.0010    -0.0000     2.3980 ca         1 IY7      -0.112300
      9 C5           1.3830    -0.0010     2.3980 ca         1 IY7      -0.064300
     10 C11          3.5280     1.8110     3.3780 ca         1 IY7      -0.105300
     11 C14          5.6990     2.5720     1.8110 ca         1 IY7       0.066100
     12 C15          5.9050     1.7610     2.9210 ca         1 IY7       0.078100
     13 C7          -0.5100    -0.0010     3.8230 c3         1 IY7      -0.049100
     14 C21          8.2490     2.0380     2.6620 c3         1 IY7       0.097400
     15 C9           1.8950    -0.0020     3.8220 c3         1 IY7      -0.034400
     16 C8           0.6930    -0.4410     4.6840 c3         1 IY7       0.114700
     17 C22          7.9600     2.2220     1.1660 c3         1 IY7       0.094100
     18 C10          2.3490     1.4020     4.2240 c3         1 IY7      -0.016100
     19 C24          9.1080     2.9900     0.5080 c3         1 IY7      -0.088400
     20 C33         -0.7470    -0.3840     9.3750 c3         1 IY7      -0.144400
     21 C34         -0.7470     0.3430    10.7220 c3         1 IY7      -0.246400
     22 C35         -1.5430    -0.4730    11.7410 c3         1 IY7       0.152800
     23 N29          0.6930     0.2540     5.9740 ns         1 IY7      -0.539900
     24 N36         -1.5430     0.2240    13.0340 nz         1 IY7      -0.812600
     25 O19          5.1540     1.0720     6.1140 o          1 IY7      -0.844300
     26 O28         10.0140     4.0050    -2.9780 o          1 IY7      -0.854300
     27 O18          5.0730    -0.6890     4.7640 o          1 IY7      -0.844300
     28 O27         10.9070     4.2540    -0.9730 o          1 IY7      -0.854300
     29 O20          7.1510     1.3310     3.2470 os         1 IY7      -0.299900
     30 O23          6.7430     2.9650     1.0330 os         1 IY7      -0.319900
     31 H2          -0.5430    -0.0000    -0.9380 ha         1 IY7       0.118000
     32 H3           1.9240    -0.0000    -0.9380 ha         1 IY7       0.133000
     33 H1          -1.7720     0.0000     1.1980 ha         1 IY7       0.111000
     34 H4           3.1550    -0.0000     1.1940 ha         1 IY7       0.163000
     35 H12          2.3420     2.9490     2.0160 ha         1 IY7       0.110000
     36 H13          4.2580     3.6230     0.6250 ha         1 IY7       0.130000
     37 H71C        -1.3240    -0.7080     3.9280 hc         1 IY7       0.045700
     38 H72C        -0.8290     0.9950     4.1070 hc         1 IY7       0.045700
     39 H9           2.7080    -0.7100     3.9270 hc         1 IY7       0.123700
     40 H101         2.6370     1.4040     5.2680 hc         1 IY7       0.045200
     41 H102         1.5360     2.1020     4.0720 hc         1 IY7       0.045200
     42 H321         1.0690     0.5480     8.7020 hc         1 IY7       0.069700
     43 H322        -0.4060     1.4090     8.2390 hc         1 IY7       0.069700
     44 H29          1.1300     1.1500     6.0580 hn         1 IY7       0.340500
     45 H251         8.5310     2.0740    -0.7180 hc         1 IY7       0.043700
     46 H252         7.9840     3.6510    -1.1830 hc         1 IY7       0.043700
     47 H8           0.6920    -1.5160     4.8190 h1         1 IY7       0.091700
     48 H211         8.3530     3.0070     3.1350 h1         1 IY7       0.060700
     49 H212         9.1600     1.4640     2.7880 h1         1 IY7       0.060700
     50 H22          7.8180     1.2450     0.7200 h1         1 IY7       0.052700
     51 H241         9.1520     3.9930     0.9150 hc         1 IY7       0.053200
     52 H242        10.0440     2.4800     0.7050 hc         1 IY7       0.053200
     53 H331        -0.3850    -1.3340     9.0030 hc         1 IY7       0.095700
     54 H332        -1.7820    -0.3450     9.0560 hc         1 IY7       0.095700
     55 H341        -1.2580     1.2910    10.6080 hc         1 IY7       0.129200
     56 H342         0.2360     0.4540    10.2790 hc         1 IY7       0.129200
     57 H351        -1.0880    -1.4490    11.8570 hx         1 IY7       0.108200
     58 H352        -2.5620    -0.5890    11.3940 hx         1 IY7       0.108200
     59 H361        -2.0120     1.1030    12.9390 hn         1 IY7       0.451467
     60 H362        -0.5990     0.3800    13.3290 hn         1 IY7       0.451467
     61 C25          8.8750     3.0610    -1.0020 c3         1 IY7      -0.200400
     62 C30          0.0490    -0.2830     7.0290 c          1 IY7       0.660100
     63 H363        -2.0170    -0.3360    13.7150 hn         1 IY7       0.451467
     64 C17          5.0220     0.5180     4.8930 c          1 IY7       0.898200
     65 C26         10.0060     3.8170    -1.6500 c          1 IY7       0.923600
     66 C32          0.0490     0.4320     8.3550 c3         1 IY7      -0.190400
     67 O31         -0.5310    -1.3420     6.9100 o          1 IY7      -0.641100
@<TRIPOS>BOND
     1     1     2 ar
     2     1     3 ar
     3     2     4 ar
     4     3     8 ar
     5     4     9 ar
     6     5     6 ar
     7     5    10 ar
     8     6    11 ar
     9     7    10 ar
    10     7    12 ar
    11     7    64 1
    12     8     9 ar
    13     8    13 1
    14     9    15 1
    15    10    18 1
    16    11    12 ar
    17    11    30 1
    18    12    29 1
    19    64    25 1
    20    64    27 1
    21    62    66 1
    22    62    23 1
    23    62    67 2
    24    65    61 1
    25    65    26 1
    26    65    28 1
    27    13    16 1
    28    14    17 1
    29    14    29 1
    30    15    16 1
    31    15    18 1
    32    16    23 1
    33    17    19 1
    34    17    30 1
    35    66    20 1
    36    61    19 1
    37    20    21 1
    38    21    22 1
    39    22    24 1
    40     1    31 1
    41     2    32 1
    42     3    33 1
    43     4    34 1
    44     5    35 1
    45     6    36 1
    46    13    37 1
    47    13    38 1
    48    15    39 1
    49    18    40 1
    50    18    41 1
    51    66    42 1
    52    66    43 1
    53    23    44 1
    54    61    45 1
    55    61    46 1
    56    16    47 1
    57    14    48 1
    58    14    49 1
    59    17    50 1
    60    19    51 1
    61    19    52 1
    62    20    53 1
    63    20    54 1
    64    21    55 1
    65    21    56 1
    66    22    57 1
    67    22    58 1
    68    24    59 1
    69    24    60 1
    70    63    24 1
@<TRIPOS>SUBSTRUCTURE
     1 IY7         1 TEMP              0 ****  ****    0 ROOT
