@<TRIPOS>MOLECULE
IY7
   67    70     1     0     0
SMALL
bcc


@<TRIPOS>ATOM
      1 C2           0.0000     0.0000     0.0000 ca         1 IY7      -0.118000
      2 C3           1.3820     0.0000     0.0000 ca         1 IY7      -0.102000
      3 C1          -0.6890     0.0000     1.1980 ca         1 IY7      -0.099000
      4 C4           2.0720     0.0000     1.1960 ca         1 IY7      -0.055000
      5 C12          3.3390     2.6120     2.2730 ca         1 IY7      -0.129000
      6 C13          4.4170     2.9930     1.4920 ca         1 IY7      -0.141000
      7 C16          4.8140     1.3760     3.7120 ca         1 IY7      -0.077600
      8 C6           0.0010    -0.0000     2.3980 ca         1 IY7      -0.121300
      9 C5           1.3830    -0.0010     2.3980 ca         1 IY7      -0.066300
     10 C11          3.5280     1.8110     3.3780 ca         1 IY7      -0.107300
     11 C14          5.6990     2.5720     1.8110 ca         1 IY7       0.068100
     12 C15          5.9050     1.7610     2.9210 ca         1 IY7       0.090100
     13 C7          -0.5100    -0.0010     3.8230 c3         1 IY7       0.026900
     14 C21          8.2490     2.0380     2.6620 c3         1 IY7       0.159400
     15 C9           1.8950    -0.0020     3.8220 c3         1 IY7      -0.008400
     16 C8           0.6930    -0.4410     4.6840 c3         1 IY7       0.010700
     17 C22          7.9600     2.2220     1.1660 c3         1 IY7       0.123100
     18 C10          2.3490     1.4020     4.2240 c3         1 IY7       0.030900
     19 C24          9.1080     2.9900     0.5080 c3         1 IY7      -0.053400
     20 C33         -0.7470    -0.3840     9.3750 c3         1 IY7      -0.112400
     21 C34         -0.7470     0.3430    10.7220 c3         1 IY7      -0.205400
     22 C35         -1.5430    -0.4730    11.7410 c3         1 IY7       0.024800
     23 N29          0.6930     0.2540     5.9740 ns         1 IY7      -0.136900
     24 N36         -1.5430     0.2240    13.0340 nz         1 IY7       0.077400
     25 O19          5.1540     1.0720     6.1140 o          1 IY7      -0.895300
     26 O28         10.0140     4.0050    -2.9780 o          1 IY7      -0.906300
     27 O18          5.0730    -0.6890     4.7640 o          1 IY7      -0.895300
     28 O27         10.9070     4.2540    -0.9730 o          1 IY7      -0.906300
     29 O20          7.1510     1.3310     3.2470 os         1 IY7      -0.273900
     30 O23          6.7430     2.9650     1.0330 os         1 IY7      -0.291900
     31 H2          -0.5430    -0.0000    -0.9380 ha         1 IY7       0.094000
     32 H3           1.9240    -0.0000    -0.9380 ha         1 IY7       0.106000
     33 H1          -1.7720     0.0000     1.1980 ha         1 IY7       0.088000
     34 H4           3.1550    -0.0000     1.1940 ha         1 IY7       0.134000
     35 H12          2.3420     2.9490     2.0160 ha         1 IY7       0.091000
     36 H13          4.2580     3.6230     0.6250 ha         1 IY7       0.107000
     37 H71C        -1.3240    -0.7080     3.9280 hc         1 IY7       0.014700
     38 H72C        -0.8290     0.9950     4.1070 hc         1 IY7       0.014700
     39 H9           2.7080    -0.7100     3.9270 hc         1 IY7       0.096700
     40 H101         2.6370     1.4040     5.2680 hc         1 IY7       0.021700
     41 H102         1.5360     2.1020     4.0720 hc         1 IY7       0.021700
     42 H321         1.0690     0.5480     8.7020 hc         1 IY7       0.038200
     43 H322        -0.4060     1.4090     8.2390 hc         1 IY7       0.038200
     44 H29          1.1300     1.1500     6.0580 hn         1 IY7       0.205500
     45 H251         8.5310     2.0740    -0.7180 hc         1 IY7       0.024700
     46 H252         7.9840     3.6510    -1.1830 hc         1 IY7       0.024700
     47 H8           0.6920    -1.5160     4.8190 h1         1 IY7       0.066700
     48 H211         8.3530     3.0070     3.1350 h1         1 IY7       0.021700
     49 H212         9.1600     1.4640     2.7880 h1         1 IY7       0.021700
     50 H22          7.8180     1.2450     0.7200 h1         1 IY7       0.025700
     51 H241         9.1520     3.9930     0.9150 hc         1 IY7       0.028200
     52 H242        10.0440     2.4800     0.7050 hc         1 IY7       0.028200
     53 H331        -0.3850    -1.3340     9.0030 hc         1 IY7       0.072700
     54 H332        -1.7820    -0.3450     9.0560 hc         1 IY7       0.072700
     55 H341        -1.2580     1.2910    10.6080 hc         1 IY7       0.108700
     56 H342         0.2360     0.4540    10.2790 hc         1 IY7       0.108700
     57 H351        -1.0880    -1.4490    11.8570 hx         1 IY7       0.077700
     58 H352        -2.5620    -0.5890    11.3940 hx         1 IY7       0.077700
     59 H361        -2.0120     1.1030    12.9390 hn         1 IY7       0.219133
     60 H362        -0.5990     0.3800    13.3290 hn         1 IY7       0.219133
     61 C25          8.8750     3.0610    -1.0020 c3         1 IY7      -0.169400
     62 C30          0.0490    -0.2830     7.0290 c          1 IY7       0.567100
     63 H363        -2.0170    -0.3360    13.7150 hn         1 IY7       0.219133
     64 C17          5.0220     0.5180     4.8930 c          1 IY7       0.992200
     65 C26         10.0060     3.8170    -1.6500 c          1 IY7       1.021600
     66 C32          0.0490     0.4320     8.3550 c3         1 IY7      -0.126400
     67 O31         -0.5310    -1.3420     6.9100 o          1 IY7      -0.684100
@<TRIPOS>BOND
     1     1     2 ar  
     2     1     3 ar  
     3     1    31 1   
     4     2     4 ar  
     5     2    32 1   
     6     3     8 ar  
     7     3    33 1   
     8     4     9 ar  
     9     4    34 1   
    10     5     6 ar  
    11     5    10 ar  
    12     5    35 1   
    13     6    11 ar  
    14     6    36 1   
    15     7    10 ar  
    16     7    12 ar  
    17     7    64 1   
    18     8     9 ar  
    19     8    13 1   
    20     9    15 1   
    21    10    18 1   
    22    11    12 ar  
    23    11    30 1   
    24    12    29 1   
    25    13    16 1   
    26    13    37 1   
    27    13    38 1   
    28    14    17 1   
    29    14    29 1   
    30    14    48 1   
    31    14    49 1   
    32    15    16 1   
    33    15    18 1   
    34    15    39 1   
    35    16    23 1   
    36    16    47 1   
    37    17    19 1   
    38    17    30 1   
    39    17    50 1   
    40    18    40 1   
    41    18    41 1   
    42    19    51 1   
    43    19    52 1   
    44    19    61 1   
    45    20    21 1   
    46    20    53 1   
    47    20    54 1   
    48    20    66 1   
    49    21    22 1   
    50    21    55 1   
    51    21    56 1   
    52    22    24 1   
    53    22    57 1   
    54    22    58 1   
    55    23    44 1   
    56    23    62 1   
    57    24    59 1   
    58    24    60 1   
    59    24    63 1   
    60    25    64 1   
    61    26    65 1   
    62    27    64 1   
    63    28    65 1   
    64    42    66 1   
    65    43    66 1   
    66    45    61 1   
    67    46    61 1   
    68    61    65 1   
    69    62    66 1   
    70    62    67 2   
@<TRIPOS>SUBSTRUCTURE
     1 IY7         1 TEMP              0 ****  ****    0 ROOT
