@<TRIPOS>MOLECULE
molecule
   35    35     1     0     0
SMALL
bcc


@<TRIPOS>ATOM
      1 CAN          0.0000     0.0000     0.0000 c3         1 IYG      -0.170100
      2 CN           1.5070     0.0000     0.0000 c          1 IYG       0.654100
      3 ON           2.1130     0.0000     1.0500 o          1 IYG      -0.569100
      4 N            2.1800     0.0000    -1.1670 ns         1 IYG      -0.580900
      5 CA           3.6450     0.0000    -1.1670 c3         1 IYG       0.051700
      6 CB           4.1550     1.2500    -0.4470 c3         1 IYG      -0.055100
      7 CG           3.6530     2.4790    -1.1580 ca         1 IYG      -0.076300
      8 CD1          2.4450     3.0420    -0.7920 ca         1 IYG      -0.070500
      9 CE1          1.9810     4.1700    -1.4420 ca         1 IYG       0.025400
     10 CD2          4.4030     3.0450    -2.1700 ca         1 IYG      -0.070500
     11 CE2          3.9420     4.1700    -2.8280 ca         1 IYG       0.025400
     12 CZ           2.7290     4.7370    -2.4630 ca         1 IYG       0.142100
     13 OH           2.2770     5.8470    -3.1030 oh         1 IYG      -0.510100
     14 I1           0.1500     5.0230    -0.8860 i          1 IYG      -0.162900
     15 I2           5.0770     5.0240    -4.3680 i          1 IYG      -0.162900
     16 C            4.1480    -1.2300    -0.4560 c          1 IYG       0.622100
     17 O            3.4920    -1.7250     0.4360 o          1 IYG      -0.601100
     18 NT           5.3250    -1.7800    -0.8120 ns         1 IYG      -0.551900
     19 CAT          5.8140    -2.9760    -0.1220 c3         1 IYG      -0.003000
     20 CT           7.1410    -3.3870    -0.7050 c          1 IYG       0.883600
     21 OT1          7.6290    -2.7460    -1.6040 o          1 IYG      -0.845800
     22 OT2          7.7810    -4.4640    -0.2240 o          1 IYG      -0.845800
     23 HAN1        -0.3610     0.5300     0.8730 hc         1 IYG       0.054033
     24 HAN2        -0.3610    -1.0210     0.0220 hc         1 IYG       0.054033
     25 HAN3        -0.3610     0.4920    -0.8950 hc         1 IYG       0.054033
     26 H            1.6800    -0.0470    -2.0330 hn         1 IYG       0.310500
     27 HA           4.0060    -0.0000    -2.1890 h1         1 IYG       0.061700
     28 HB1          3.7930     1.2500     0.5740 hc         1 IYG       0.086700
     29 HB2          5.2380     1.2500    -0.4460 hc         1 IYG       0.086700
     30 HD1          1.8610     2.5990     0.0060 ha         1 IYG       0.158000
     31 HD2          5.3500     2.6010    -2.4540 ha         1 IYG       0.158000
     32 H1O          2.5770     6.6160    -2.6480 ho         1 IYG       0.426000
     33 HT1          5.8580    -1.3810    -1.5600 hn         1 IYG       0.327500
     34 HAT1         5.1000    -3.7810    -0.2470 h1         1 IYG       0.047700
     35 HAT2         5.9350    -2.7600     0.9320 h1         1 IYG       0.047700
@<TRIPOS>BOND
     1     1     2 1
     2     1    23 1
     3     1    24 1
     4     1    25 1
     5     2     3 2
     6     2     4 1
     7     4     5 1
     8     4    26 1
     9     5     6 1
    10     5    16 1
    11     5    27 1
    12     6     7 1
    13     6    28 1
    14     6    29 1
    15     7     8 ar
    16     7    10 ar
    17     8     9 ar
    18     8    30 1
    19     9    12 ar
    20     9    14 1
    21    10    11 ar
    22    10    31 1
    23    11    12 ar
    24    11    15 1
    25    12    13 1
    26    13    32 1
    27    16    17 2
    28    16    18 1
    29    18    19 1
    30    18    33 1
    31    19    20 1
    32    19    34 1
    33    19    35 1
    34    20    21 1
    35    20    22 1
@<TRIPOS>SUBSTRUCTURE
     1 IYG         1 TEMP              0 ****  ****    0 ROOT
