@<TRIPOS>MOLECULE
molecule
   24    24     1     0     0
SMALL
bcc


@<TRIPOS>ATOM
      1 OP4          0.0000     0.0000     0.0000 o          1 IYP      -0.908833
      2 P            1.6100     0.0000     0.0000 p5         1 IYP       1.178900
      3 OP5          2.1460     0.0000     1.5180 o          1 IYP      -0.908833
      4 OP6          2.1030    -1.2100    -0.6960 o          1 IYP      -0.908833
      5 OP1          2.1470     1.3140    -0.7600 os         1 IYP      -0.576200
      6 C1           1.9290     1.5510    -2.1520 c3         1 IYP       0.210400
      7 C2           2.5680     2.8840    -2.5480 c3         1 IYP       0.137100
      8 O2           3.9870     2.7960    -2.3970 oh         1 IYP      -0.623800
      9 C3           2.2300     3.1990    -4.0060 c3         1 IYP       0.210400
     10 O3           0.8110     3.2870    -4.1570 oh         1 IYP      -0.578800
     11 C4           2.8580     4.5110    -4.3960 cc         1 IYP      -0.219900
     12 N2           4.0660     4.6850    -5.0190 na         1 IYP      -0.285900
     13 C6           4.2440     6.0130    -5.1810 cd         1 IYP       0.354400
     14 N1           3.2090     6.6370    -4.6880 nc         1 IYP      -0.720000
     15 C5           2.3400     5.7390    -4.2030 cc         1 IYP       0.310200
     16 H3           2.3770     0.7510    -2.7290 h1         1 IYP       0.023200
     17 H4           0.8650     1.5880    -2.3490 h1         1 IYP       0.023200
     18 H5           2.1850     3.6710    -1.9100 h1         1 IYP       0.050700
     19 H6           4.2500     3.2630    -1.6210 ho         1 IYP       0.410000
     20 H7           2.6130     2.4110    -4.6440 h1         1 IYP       0.037700
     21 H8           0.5520     2.8520    -4.9520 ho         1 IYP       0.393000
     22 H9           4.6980     3.9620    -5.3020 hn         1 IYP       0.297700
     23 H10          5.1040     6.4830    -5.6420 h5         1 IYP       0.043100
     24 H12          1.3890     5.9620    -3.7340 h4         1 IYP       0.051100
@<TRIPOS>BOND
     1    14    13 2
     2    14    15 1
     3    13    12 1
     4    15    11 2
     5    12    11 1
     6     4     2 1
     7    11     9 1
     8     1     2 1
     9     2     5 1
    10     2     3 1
    11     5     6 1
    12     7     9 1
    13     7     8 1
    14     7     6 1
    15     9    10 1
    16     6    16 1
    17     6    17 1
    18     7    18 1
    19     8    19 1
    20     9    20 1
    21    10    21 1
    22    12    22 1
    23    13    23 1
    24    15    24 1
@<TRIPOS>SUBSTRUCTURE
     1 IYP         1 TEMP              0 ****  ****    0 ROOT
