@<TRIPOS>MOLECULE
IYP
   24    24     1     0     0
SMALL
bcc


@<TRIPOS>ATOM
      1 OP4         1.1770   -0.7200   -1.5590 o         1 IYP     -0.916500
      2 P           2.4730   -0.2560   -0.9550 p5        1 IYP      1.316900
      3 OP5         2.8890   -0.8570    0.3510 o         1 IYP     -0.916500
      4 OP6         3.5670    0.0480   -1.9580 o         1 IYP     -0.916500
      5 OP1         2.1090    1.4070   -0.5590 os        1 IYP     -0.553200
      6 C1          1.4570    2.0790   -1.5520 c3        1 IYP      0.195400
      7 C2          2.3620    3.1590   -2.2090 c3        1 IYP      0.103100
      8 O2          3.7210    2.8100   -2.2110 oh        1 IYP     -0.702800
      9 C3          1.8970    3.4020   -3.6710 c3        1 IYP      0.169400
     10 O3          0.5300    3.8120   -3.7290 oh        1 IYP     -0.631800
     11 C4          2.6830    4.4600   -4.3710 cc        1 IYP     -0.147900
     12 N2          4.0740    4.5140   -4.3410 na        1 IYP     -0.279900
     13 C6          4.4570    5.6090   -5.1170 cc        1 IYP      0.325400
     14 N1          3.3820    6.2370   -5.6550 nd        1 IYP     -0.712000
     15 C5          2.2730    5.5350   -5.1990 cd        1 IYP      0.250200
     16 H3          1.0920    1.3650   -2.3470 h1        1 IYP     -0.005300
     17 H4          0.5650    2.6310   -1.1230 h1        1 IYP     -0.005300
     18 H5          2.2790    4.1300   -1.6470 h1        1 IYP      0.016700
     19 H6          3.7890    1.8270   -2.0100 ho        1 IYP      0.515000
     20 H7          2.0090    2.4330   -4.2440 h1        1 IYP      0.068700
     21 H8          0.0500    3.2070   -3.1480 ho        1 IYP      0.420000
     22 H9          4.6320    3.9230   -3.7660 hn        1 IYP      0.343700
     23 H10         5.5010    5.8880   -5.2640 h5        1 IYP      0.032100
     24 H12         1.2540    5.8080   -5.4580 h4        1 IYP      0.030100
@<TRIPOS>BOND
     1    1    2 1   
     2    2    3 1   
     3    2    4 1   
     4    2    5 1   
     5    5    6 1   
     6    6    7 1   
     7    6   16 1   
     8    6   17 1   
     9    7    8 1   
    10    7    9 1   
    11    7   18 1   
    12    8   19 1   
    13    9   10 1   
    14    9   11 1   
    15    9   20 1   
    16   10   21 1   
    17   11   12 1   
    18   11   15 2   
    19   12   13 1   
    20   12   22 1   
    21   13   14 2   
    22   13   23 1   
    23   14   15 1   
    24   15   24 1   
@<TRIPOS>SUBSTRUCTURE
     1 IYP         1 TEMP              0 ****  ****    0 ROOT
