@<TRIPOS>MOLECULE
IYX
   42    44     1     0     0
SMALL
bcc


@<TRIPOS>ATOM
      1 C1           0.0000     0.0000     0.0000 ca         1 IYX      -0.116800
      2 C2           1.3980     0.0000     0.0000 ca         1 IYX       0.084900
      3 C3          -0.6820    -0.0060     1.2340 ca         1 IYX      -0.052000
      4 C4           2.0980     0.0000     1.2110 ca         1 IYX      -0.053000
      5 C5           0.0310    -0.0050     2.4200 cp         1 IYX       0.052000
      6 C6           1.4300    -0.0010     2.3990 ca         1 IYX      -0.013000
      7 C7          -0.5420    -0.0000    -1.3500 cc         1 IYX       0.071800
      8 C8           0.3610    -0.0000    -2.3090 cd         1 IYX      -0.308600
      9 S9           1.9880    -0.0000    -1.6580 ss         1 IYX      -0.147500
     10 C10         -0.6890    -0.0090     3.7170 cp         1 IYX      -0.110000
     11 C11         -2.0820    -0.0150     3.7410 ca         1 IYX      -0.069000
     12 C12          0.0270    -0.0140     4.9120 ca         1 IYX      -0.159000
     13 C13         -2.7520    -0.0200     4.9480 ca         1 IYX      -0.182000
     14 C14         -0.6480    -0.0200     6.1200 ca         1 IYX       0.136100
     15 C15         -2.0410    -0.0180     6.1380 ca         1 IYX       0.174100
     16 O16          0.0470    -0.0240     7.2880 os         1 IYX      -0.274900
     17 C17          1.4730    -0.0250     7.1950 c3         1 IYX       0.243700
     18 O18         -2.7040    -0.0220     7.3250 os         1 IYX      -0.273900
     19 C19         -4.1320    -0.0210     7.2710 c3         1 IYX       0.241700
     20 C20          0.0360    -0.0000    -3.7810 c3         1 IYX       0.092900
     21 N21          1.1020    -0.6930    -4.5180 nz         1 IYX       0.035400
     22 N22         -1.2410    -0.6940    -4.0000 nz         1 IYX       0.035400
     23 H3          -1.7650    -0.0090     1.2540 ha         1 IYX       0.132000
     24 H4           3.1820     0.0030     1.2040 ha         1 IYX       0.134000
     25 H6           1.9840    -0.0000     3.3300 ha         1 IYX       0.142000
     26 H7          -1.6070    -0.0000    -1.5510 ha         1 IYX       0.100000
     27 H11         -2.6400    -0.0170     2.8120 ha         1 IYX       0.096000
     28 H12          1.1100    -0.0160     4.8960 ha         1 IYX       0.128000
     29 H13         -3.8350    -0.0210     4.9660 ha         1 IYX       0.135000
     30 H17          1.8010     0.8610     6.6650 h1         1 IYX       0.001033
     31 H17A         1.7990    -0.9080     6.6580 h1         1 IYX       0.001033
     32 H17B         1.9000    -0.0300     8.1900 h1         1 IYX       0.001033
     33 H19         -4.4750    -0.9050     6.7460 h1         1 IYX       0.005367
     34 H19A        -4.5320    -0.0210     8.2780 h1         1 IYX       0.005367
     35 H19B        -4.4730     0.8640     6.7480 h1         1 IYX       0.005367
     36 HN21         1.2080    -1.6210    -4.1570 hn         1 IYX       0.260300
     37 HN2A         1.9620    -0.1930    -4.4090 hn         1 IYX       0.260300
     38 HN2C        -1.2540    -1.5460    -3.4740 hn         1 IYX       0.260300
     39 HN2D        -1.9950    -0.1070    -3.7010 hn         1 IYX       0.260300
     40 H20         -0.0420     1.0210    -4.1340 hx         1 IYX       0.141700
     41 H213         0.8620    -0.7370    -5.4880 hn         1 IYX       0.260300
     42 H223        -1.3580    -0.8780    -4.9770 hn         1 IYX       0.260300
@<TRIPOS>BOND
     1     1     2 ar  
     2     1     3 ar  
     3     1     7 1   
     4     2     4 ar  
     5     2     9 1   
     6     3     5 ar  
     7     3    23 1   
     8     4     6 ar  
     9     4    24 1   
    10     5     6 ar  
    11     5    10 1   
    12     6    25 1   
    13     7     8 2   
    14     7    26 1   
    15     8     9 1   
    16     8    20 1   
    17    10    11 ar  
    18    10    12 ar  
    19    11    13 ar  
    20    11    27 1   
    21    12    14 ar  
    22    12    28 1   
    23    13    15 ar  
    24    13    29 1   
    25    14    15 ar  
    26    14    16 1   
    27    15    18 1   
    28    16    17 1   
    29    17    30 1   
    30    17    31 1   
    31    17    32 1   
    32    18    19 1   
    33    19    33 1   
    34    19    34 1   
    35    19    35 1   
    36    20    21 1   
    37    20    22 1   
    38    20    40 1   
    39    21    36 1   
    40    21    37 1   
    41    21    41 1   
    42    22    38 1   
    43    22    39 1   
    44    22    42 1   
@<TRIPOS>SUBSTRUCTURE
     1 IYX         1 TEMP              0 ****  ****    0 ROOT
