@<TRIPOS>MOLECULE
molecule
   42    44     1     0     0
SMALL
bcc


@<TRIPOS>ATOM
      1 C1           0.0000     0.0000     0.0000 ca         1 IYX      -0.100800
      2 C2           1.3980     0.0000     0.0000 ca         1 IYX       0.034900
      3 C3          -0.6820    -0.0060     1.2340 ca         1 IYX      -0.082000
      4 C4           2.0980     0.0000     1.2110 ca         1 IYX      -0.094000
      5 C5           0.0310    -0.0050     2.4200 cp         1 IYX       0.038000
      6 C6           1.4300    -0.0010     2.3990 ca         1 IYX      -0.042000
      7 C7          -0.5420    -0.0000    -1.3500 cc         1 IYX      -0.000200
      8 C8           0.3610    -0.0000    -2.3090 cd         1 IYX      -0.301600
      9 S9           1.9880    -0.0000    -1.6580 ss         1 IYX      -0.049500
     10 C10         -0.6890    -0.0090     3.7170 cp         1 IYX      -0.101000
     11 C11         -2.0820    -0.0150     3.7410 ca         1 IYX      -0.096000
     12 C12          0.0270    -0.0140     4.9120 ca         1 IYX      -0.170000
     13 C13         -2.7520    -0.0200     4.9480 ca         1 IYX      -0.195000
     14 C14         -0.6480    -0.0200     6.1200 ca         1 IYX       0.132100
     15 C15         -2.0410    -0.0180     6.1380 ca         1 IYX       0.168100
     16 O16          0.0470    -0.0240     7.2880 os         1 IYX      -0.292900
     17 C17          1.4730    -0.0250     7.1950 c3         1 IYX       0.124700
     18 O18         -2.7040    -0.0220     7.3250 os         1 IYX      -0.290900
     19 C19         -4.1320    -0.0210     7.2710 c3         1 IYX       0.121700
     20 C20          0.0360    -0.0000    -3.7810 c3         1 IYX       0.427900
     21 N21          1.1020    -0.6930    -4.5180 nz         1 IYX      -0.840600
     22 N22         -1.2410    -0.6940    -4.0000 nz         1 IYX      -0.840600
     23 H3          -1.7650    -0.0090     1.2540 ha         1 IYX       0.160000
     24 H4           3.1820     0.0030     1.2040 ha         1 IYX       0.165000
     25 H6           1.9840    -0.0000     3.3300 ha         1 IYX       0.176000
     26 H7          -1.6070    -0.0000    -1.5510 ha         1 IYX       0.135000
     27 H11         -2.6400    -0.0170     2.8120 ha         1 IYX       0.120000
     28 H12          1.1100    -0.0160     4.8960 ha         1 IYX       0.142000
     29 H13         -3.8350    -0.0210     4.9660 ha         1 IYX       0.157000
     30 H17          1.8010     0.8610     6.6650 h1         1 IYX       0.047033
     31 H17A         1.7990    -0.9080     6.6580 h1         1 IYX       0.047033
     32 H17B         1.9000    -0.0300     8.1900 h1         1 IYX       0.047033
     33 H19         -4.4750    -0.9050     6.7460 h1         1 IYX       0.051700
     34 H19A        -4.5320    -0.0210     8.2780 h1         1 IYX       0.051700
     35 H19B        -4.4730     0.8640     6.7480 h1         1 IYX       0.051700
     36 HN21         1.2080    -1.6210    -4.1570 hn         1 IYX       0.486467
     37 HN2A         1.9620    -0.1930    -4.4090 hn         1 IYX       0.486467
     38 HN2C        -1.2540    -1.5460    -3.4740 hn         1 IYX       0.486467
     39 HN2D        -1.9950    -0.1070    -3.7010 hn         1 IYX       0.486467
     40 H20         -0.0420     1.0210    -4.1340 hx         1 IYX       0.178700
     41 H213         0.8620    -0.7370    -5.4880 hn         1 IYX       0.486467
     42 H223        -1.3580    -0.8780    -4.9770 hn         1 IYX       0.486467
@<TRIPOS>BOND
     1     3     1 ar
     2     1     7 1
     3     1     2 ar
     4     2     4 ar
     5     2     9 1
     6     5     3 ar
     7     3    23 1
     8     6     4 ar
     9     4    24 1
    10    10     5 1
    11     5     6 ar
    12     6    25 1
    13     7     8 2
    14     7    26 1
    15     8    20 1
    16     8     9 1
    17    12    10 ar
    18    10    11 ar
    19    13    11 ar
    20    11    27 1
    21    14    12 ar
    22    12    28 1
    23    15    13 ar
    24    13    29 1
    25    16    14 1
    26    14    15 ar
    27    18    15 1
    28    17    16 1
    29    17    30 1
    30    17    31 1
    31    17    32 1
    32    19    18 1
    33    19    33 1
    34    19    34 1
    35    19    35 1
    36    22    20 1
    37    20    21 1
    38    21    36 1
    39    21    37 1
    40    22    38 1
    41    22    39 1
    42    20    40 1
    43    41    21 1
    44    42    22 1
@<TRIPOS>SUBSTRUCTURE
     1 IYX         1 TEMP              0 ****  ****    0 ROOT
