@<TRIPOS>MOLECULE
molecule
   41    44     1     0     0
SMALL
bcc


@<TRIPOS>ATOM
      1 CAJ          0.0000     0.0000     0.0000 cx         1 IYZ      -0.129400
      2 CAK          1.5300     0.0000     0.0000 cx         1 IYZ      -0.129400
      3 CAV          0.7660     0.0000     1.3250 cx         1 IYZ      -0.166700
      4 CAL          0.7670     1.2930     2.1410 c3         1 IYZ       0.274800
      5 NAO          1.4440     1.0640     3.4200 nu         1 IYZ      -0.907900
      6 CAS          1.5690     2.1030     4.3380 cc         1 IYZ       0.678200
      7 CAF          2.2210     1.8740     5.5640 cc         1 IYZ      -0.301300
      8 CAG          2.3480     2.8830     6.4660 cd         1 IYZ       0.004000
      9 NAN          1.0780     3.2860     4.0500 nd         1 IYZ      -0.589800
     10 NAW          1.1870     4.3410     4.9600 na         1 IYZ       0.228200
     11 CAU          1.8220     4.1530     6.1600 cd         1 IYZ      -0.110300
     12 NAM          1.7980     5.2980     6.8330 nc         1 IYZ      -0.284600
     13 CAH          1.1770     6.2230     6.1100 cc         1 IYZ       0.025600
     14 CAT          0.7830     5.6500     4.9200 cd         1 IYZ      -0.087300
     15 CAR          0.0580     6.3150     3.8170 ca         1 IYZ      -0.028800
     16 CAI         -0.9590     7.2250     4.0980 ca         1 IYZ      -0.053000
     17 CAE          0.3960     6.0390     2.4900 ca         1 IYZ      -0.076000
     18 CAC         -0.2790     6.6590     1.4570 ca         1 IYZ      -0.147000
     19 CAD         -1.2920     7.5560     1.7270 ca         1 IYZ      -0.090000
     20 CAQ         -1.6420     7.8440     3.0500 ca         1 IYZ      -0.181600
     21 CAP         -2.7230     8.8010     3.3370 c          1 IYZ       0.576700
     22 CAA         -3.4550     9.4740     2.2040 c3         1 IYZ      -0.191100
     23 OAB         -3.0240     9.0490     4.4850 o          1 IYZ      -0.528100
     24 HAJ1        -0.4670     0.9390    -0.2700 hc         1 IYZ       0.077700
     25 HAJ2        -0.4670    -0.9390    -0.2700 hc         1 IYZ       0.077700
     26 HAK1         1.9980    -0.9390    -0.2700 hc         1 IYZ       0.077700
     27 HAK2         1.9980     0.9390    -0.2700 hc         1 IYZ       0.077700
     28 HAV          0.7670    -0.9490     1.8480 hc         1 IYZ       0.083700
     29 HAL1         1.2890     2.0670     1.5900 h1         1 IYZ       0.055700
     30 HAL2        -0.2540     1.6060     2.3230 h1         1 IYZ       0.055700
     31 HAO          1.8120     0.1590     3.6360 hn         1 IYZ       0.454800
     32 HAF          2.6230     0.8930     5.7890 ha         1 IYZ       0.145000
     33 HAG          2.8490     2.7120     7.4110 ha         1 IYZ       0.164000
     34 HAH          1.0120     7.2530     6.4040 h4         1 IYZ       0.192000
     35 HAI         -1.2250     7.4430     5.1260 ha         1 IYZ       0.159000
     36 HAE          1.1900     5.3350     2.2700 ha         1 IYZ       0.146000
     37 HAC         -0.0120     6.4390     0.4310 ha         1 IYZ       0.133000
     38 HAD         -1.8190     8.0370     0.9110 ha         1 IYZ       0.132000
     39 HAA1        -3.9290     8.7220     1.5840 hc         1 IYZ       0.061367
     40 HAA2        -2.7520    10.0430     1.6070 hc         1 IYZ       0.061367
     41 HAA3        -4.2090    10.1390     2.6050 hc         1 IYZ       0.061367
@<TRIPOS>BOND
     1     1     2 1
     2     1     3 1
     3     1    24 1
     4     1    25 1
     5     2     3 1
     6     2    26 1
     7     2    27 1
     8     3     4 1
     9     3    28 1
    10     4     5 1
    11     4    29 1
    12     4    30 1
    13     5     6 1
    14     5    31 1
    15     6     7 1
    16     6     9 2
    17     7     8 2
    18     7    32 1
    19     8    11 1
    20     8    33 1
    21     9    10 1
    22    10    11 1
    23    10    14 1
    24    11    12 2
    25    12    13 1
    26    13    14 2
    27    13    34 1
    28    14    15 1
    29    15    16 ar
    30    15    17 ar
    31    16    20 ar
    32    16    35 1
    33    17    18 ar
    34    17    36 1
    35    18    19 ar
    36    18    37 1
    37    19    20 ar
    38    19    38 1
    39    20    21 1
    40    21    22 1
    41    21    23 2
    42    22    39 1
    43    22    40 1
    44    22    41 1
@<TRIPOS>SUBSTRUCTURE
     1 IYZ         1 TEMP              0 ****  ****    0 ROOT
