@<TRIPOS>MOLECULE
molecule
   64    68     1     0     0
SMALL
bcc


@<TRIPOS>ATOM
      1 C1           0.0000     0.0000     0.0000 c3         1 IZ1       0.051400
      2 C2           1.5080     0.0000     0.0000 c3         1 IZ1      -0.161400
      3 C3           2.0140     0.0000     1.4010 c          1 IZ1       0.693500
      4 N4           1.1250    -0.3960     2.3210 ns         1 IZ1      -0.492300
      5 S5          -0.4770    -0.8130     1.5340 s6         1 IZ1       0.528600
      6 O6          -1.7470     0.0310     2.2110 o          1 IZ1      -0.392800
      7 O7          -0.7820    -2.4850     1.3740 o          1 IZ1      -0.392800
      8 O9           3.1580     0.3130     1.7140 o          1 IZ1      -0.590500
      9 C11         -0.6060    -0.6720    -1.2170 ca         1 IZ1      -0.117300
     10 C12          0.0400    -1.8570    -1.8030 ca         1 IZ1      -0.086000
     11 C13         -0.5310    -2.4860    -2.9960 ca         1 IZ1      -0.114000
     12 C14         -1.7490    -1.9330    -3.6010 ca         1 IZ1      -0.066300
     13 C15         -2.3980    -0.7480    -3.0120 ca         1 IZ1      -0.114000
     14 C16         -1.8270    -0.1230    -1.8250 ca         1 IZ1      -0.086000
     15 C21         -2.3440    -2.5810    -4.8120 c3         1 IZ1      -0.039100
     16 C23          0.8280    -0.2920    -7.2140 cc         1 IZ1       0.368800
     17 C4           0.8200    -1.6370    -7.7630 cd         1 IZ1      -0.256600
     18 N11         -0.3810    -0.1350    -6.4990 nc         1 IZ1      -0.640000
     19 C25         -1.0990    -1.3420    -6.6080 cd         1 IZ1       0.326800
     20 N13         -0.3760    -2.2820    -7.3780 na         1 IZ1      -0.296900
     21 C17          3.9000     2.8680    -7.5670 ca         1 IZ1      -0.127000
     22 C19          2.6340     3.1290    -6.8490 ca         1 IZ1      -0.136500
     23 C20          1.6170     2.0650    -6.7370 ca         1 IZ1      -0.110500
     24 C27          1.8630     0.7390    -7.3440 ca         1 IZ1      -0.122500
     25 C5           3.1290     0.4820    -8.0640 ca         1 IZ1      -0.110500
     26 C6           4.1450     1.5460    -8.1730 ca         1 IZ1      -0.136500
     27 C22         -2.4750    -1.6270    -5.9930 c3         1 IZ1       0.231200
     28 N45         -3.3440    -2.2830    -6.9680 n7         1 IZ1      -0.778100
     29 S1          -4.0230    -1.3940    -8.2480 sy         1 IZ1       0.613200
     30 O1          -5.4320    -2.3960    -8.4700 o          1 IZ1      -0.397800
     31 O2          -4.4520     0.2000    -7.7570 o          1 IZ1      -0.397800
     32 C24         -1.9900    -3.2850   -11.2660 ca         1 IZ1      -0.195300
     33 C26         -0.9340    -2.3340   -11.6450 ca         1 IZ1      -0.014000
     34 C7          -2.9910    -2.9090   -10.2680 ca         1 IZ1       0.005000
     35 C8          -2.9380    -1.5840    -9.6470 ca         1 IZ1      -0.161500
     36 C9          -1.8890    -0.6330   -10.0230 ca         1 IZ1       0.021000
     37 C10         -0.8850    -1.0090   -11.0210 ca         1 IZ1      -0.155000
     38 F3          -3.1580    -5.5150   -11.4770 f          1 IZ1      -0.224633
     39 F1          -0.7880    -5.3860   -11.6220 f          1 IZ1      -0.224633
     40 F2          -2.2760    -4.5130   -13.3840 f          1 IZ1      -0.224633
     41 H1          -0.3420     1.0270     0.0360 h1         1 IZ1       0.127700
     42 H2C1         1.8670     0.8860    -0.5110 hc         1 IZ1       0.106200
     43 H2C2         1.8660    -0.8850    -0.5110 hc         1 IZ1       0.106200
     44 H4           1.3100    -0.4570     3.3030 hn         1 IZ1       0.365500
     45 H12          0.9390    -2.2630    -1.3540 ha         1 IZ1       0.146000
     46 H16         -2.3020     0.7480    -1.3900 ha         1 IZ1       0.146000
     47 H13         -0.0570    -3.3580    -3.4310 ha         1 IZ1       0.147000
     48 H15         -3.2970    -0.3430    -3.4600 ha         1 IZ1       0.147000
     49 H211        -1.7160    -3.4140    -5.1050 hc         1 IZ1       0.063700
     50 H212        -3.3270    -2.9580    -4.5580 hc         1 IZ1       0.063700
     51 H22         -2.9290    -0.7000    -5.6650 h1         1 IZ1       0.112700
     52 HA           1.6060    -2.0760    -8.3660 h4         1 IZ1       0.181000
     53 HB          -0.6580    -3.2140    -7.6100 hn         1 IZ1       0.313700
     54 H17          4.6470     3.6490    -7.6490 ha         1 IZ1       0.138000
     55 H19          2.4530     4.1000    -6.4040 ha         1 IZ1       0.138500
     56 H6           5.0720     1.3560    -8.7000 ha         1 IZ1       0.138500
     57 H20          0.6900     2.2560    -6.2110 ha         1 IZ1       0.143000
     58 H5           3.3110    -0.4890    -8.5100 ha         1 IZ1       0.143000
     59 H45         -3.5420    -3.2600    -6.8800 hn         1 IZ1       0.469800
     60 H26         -0.1920    -2.6130   -12.3830 ha         1 IZ1       0.162000
     61 H7          -3.8160    -3.5760   -10.0490 ha         1 IZ1       0.189000
     62 H10         -0.1090    -0.3070   -11.3000 ha         1 IZ1       0.164000
     63 H9          -1.8530     0.3460    -9.5610 ha         1 IZ1       0.173000
     64 C18         -2.0440    -4.6100   -11.8950 c3         1 IZ1       0.639200
@<TRIPOS>BOND
     1     1     2 1
     2     1     5 1
     3     1     9 1
     4     2     3 1
     5     3     4 1
     6     3     8 2
     7     4     5 1
     8     5     6 2
     9     5     7 2
    10     9    10 ar
    11     9    14 ar
    12    10    11 ar
    13    11    12 ar
    14    12    13 ar
    15    12    15 1
    16    13    14 ar
    17    15    27 1
    18    16    17 2
    19    16    18 1
    20    16    24 1
    21    17    20 1
    22    18    19 2
    23    19    20 1
    24    19    27 1
    25    21    22 ar
    26    21    26 ar
    27    22    23 ar
    28    23    24 ar
    29    24    25 ar
    30    25    26 ar
    31    27    28 1
    32    28    29 1
    33    29    30 2
    34    29    31 2
    35    29    35 1
    36    64    32 1
    37    64    38 1
    38    64    39 1
    39    64    40 1
    40    32    33 ar
    41    32    34 ar
    42    33    37 ar
    43    34    35 ar
    44    35    36 ar
    45    36    37 ar
    46     1    41 1
    47     2    42 1
    48     2    43 1
    49     4    44 1
    50    10    45 1
    51    14    46 1
    52    11    47 1
    53    13    48 1
    54    15    49 1
    55    15    50 1
    56    27    51 1
    57    17    52 1
    58    20    53 1
    59    21    54 1
    60    22    55 1
    61    26    56 1
    62    23    57 1
    63    25    58 1
    64    28    59 1
    65    33    60 1
    66    34    61 1
    67    37    62 1
    68    36    63 1
@<TRIPOS>SUBSTRUCTURE
     1 IZ1         1 TEMP              0 ****  ****    0 ROOT
