@<TRIPOS>MOLECULE
IZ2
   67    71     1     0     0
SMALL
bcc


@<TRIPOS>ATOM
      1 C1           0.0000     0.0000     0.0000 c3         1 IZ2       0.156400
      2 C2           1.4920     0.0000     0.0000 c3         1 IZ2      -0.108400
      3 C3           1.9600     0.0000     1.4110 c          1 IZ2       0.649500
      4 N4           1.0760    -0.4930     2.2880 ns         1 IZ2      -0.167300
      5 S5          -0.3700    -1.0320     1.4140 s6         1 IZ2       0.389600
      6 O6          -1.8110    -0.5480     2.0250 o          1 IZ2      -0.411300
      7 O7          -0.3820    -2.5930     0.9660 o          1 IZ2      -0.411300
      8 O9           3.0300     0.4200     1.7920 o          1 IZ2      -0.613500
      9 C11         -0.7130    -0.4830    -1.2520 ca         1 IZ2      -0.104300
     10 C12         -0.1330    -1.5570    -2.0640 ca         1 IZ2      -0.051500
     11 C13         -0.8150    -2.0000    -3.2710 ca         1 IZ2      -0.084000
     12 C14         -2.0830    -1.3690    -3.6710 ca         1 IZ2      -0.076300
     13 C15         -2.6610    -0.3020    -2.8580 ca         1 IZ2      -0.084000
     14 C16         -1.9830     0.1420    -1.6530 ca         1 IZ2      -0.051500
     15 C21         -2.7930    -1.8300    -4.9190 c3         1 IZ2       0.021900
     16 C22         -3.0180    -0.7030    -5.9310 c3         1 IZ2       0.175200
     17 N45         -3.8800    -1.2360    -7.0030 n7         1 IZ2      -0.436100
     18 S1          -4.5490    -0.0680    -8.1070 sy         1 IZ2       0.331200
     19 C23          0.2620     0.6460    -7.0440 cc         1 IZ2       0.290600
     20 C4           0.2770    -0.6780    -7.6390 cd         1 IZ2      -0.424600
     21 N11         -0.9300     0.9250    -6.3400 nc         1 IZ2      -0.564000
     22 C25         -1.6640    -0.2680    -6.5010 cd         1 IZ2       0.160800
     23 N13         -0.9710    -1.2220    -7.2710 na         1 IZ2       0.235100
     24 C17          5.4420    -0.1340    -7.6230 ca         1 IZ2      -0.104000
     25 C18          4.8820     0.7240    -8.6790 ca         1 IZ2      -0.101500
     26 C19          3.5450     1.3060    -8.5190 ca         1 IZ2      -0.098000
     27 C20          2.7660     1.0330    -7.3020 ca         1 IZ2      -0.095300
     28 C27          3.3280     0.1710    -6.2450 ca         1 IZ2      -0.098000
     29 C6           4.6630    -0.4100    -6.4070 ca         1 IZ2      -0.101500
     30 O1          -6.1500    -0.4480    -8.5360 o          1 IZ2      -0.388800
     31 O2          -4.2520     1.5140    -7.5320 o          1 IZ2      -0.388800
     32 C24         -1.4870     0.8170   -10.8370 ca         1 IZ2      -0.141000
     33 C26         -1.5160    -0.3600   -11.7100 ca         1 IZ2       0.049000
     34 C7          -2.4330     0.9230    -9.7240 ca         1 IZ2       0.085000
     35 C8          -3.4070    -0.1500    -9.4810 ca         1 IZ2      -0.051500
     36 C9          -3.4390    -1.3250   -10.3530 ca         1 IZ2       0.062000
     37 C10         -2.4970    -1.4330   -11.4670 ca         1 IZ2      -0.262300
     38 C29         -2.5560    -2.6080   -12.3270 c3         1 IZ2       0.675200
     39 F4          -1.2710    -3.3070   -12.1770 f          1 IZ2      -0.227300
     40 F6          -2.7810    -2.2110   -13.7310 f          1 IZ2      -0.227300
     41 F5          -3.6640    -3.5990   -12.1230 f          1 IZ2      -0.227300
     42 H1          -0.3370     1.0060     0.2180 h1         1 IZ2       0.089700
     43 H2C1         1.8560     0.8870    -0.5040 hc         1 IZ2       0.068700
     44 H2C2         1.8560    -0.8870    -0.5040 hc         1 IZ2       0.068700
     45 H4           1.2100    -0.5480     3.2780 hn         1 IZ2       0.249500
     46 H12          0.8010    -2.0180    -1.7680 ha         1 IZ2       0.113500
     47 H16         -2.4110     0.9340    -1.0510 ha         1 IZ2       0.113500
     48 H13         -0.3890    -2.7920    -3.8750 ha         1 IZ2       0.110500
     49 H15         -3.5960     0.1590    -3.1550 ha         1 IZ2       0.110500
     50 H211        -3.7540    -2.2450    -4.6400 hc         1 IZ2       0.022200
     51 H212        -2.2010    -2.6060    -5.3890 hc         1 IZ2       0.022200
     52 H22         -3.5040     0.1360    -5.4490 h1         1 IZ2       0.072700
     53 H45         -4.3150    -2.1310    -6.8960 hn         1 IZ2       0.347800
     54 HA           1.0600    -1.1390    -8.2280 h4         1 IZ2       0.171000
     55 H5C1         1.2010     2.3210    -7.9610 hc         1 IZ2       0.027200
     56 H5C2         1.3930     2.2460    -6.2140 hc         1 IZ2       0.027200
     57 HB          -1.3050    -2.1340    -7.5120 hn         1 IZ2       0.129700
     58 H18          5.4570     0.9250    -9.5740 ha         1 IZ2       0.103500
     59 H6           5.0770    -1.0430    -5.6310 ha         1 IZ2       0.103500
     60 H19          3.1320     1.9380    -9.2960 ha         1 IZ2       0.106500
     61 H27          2.7540    -0.0330    -5.3490 ha         1 IZ2       0.106500
     62 H24         -0.7680     1.6070   -11.0160 ha         1 IZ2       0.127000
     63 H26         -0.8180    -0.4410   -12.5340 ha         1 IZ2       0.118000
     64 H7          -2.4130     1.7930    -9.0780 ha         1 IZ2       0.154000
     65 H9          -4.1600    -2.1130   -10.1740 ha         1 IZ2       0.127000
     66 C5           1.3900     1.6590    -7.1240 c3         1 IZ2       0.025600
     67 H17          6.4290    -0.5640    -7.7420 ha         1 IZ2       0.104000
@<TRIPOS>BOND
     1     1     2 1   
     2     1     5 1   
     3     1     9 1   
     4     1    42 1   
     5     2     3 1   
     6     2    43 1   
     7     2    44 1   
     8     3     4 1   
     9     3     8 2   
    10     4     5 1   
    11     4    45 1   
    12     5     6 2   
    13     5     7 2   
    14     9    10 ar  
    15     9    14 ar  
    16    10    11 ar  
    17    10    46 1   
    18    11    12 ar  
    19    11    48 1   
    20    12    13 ar  
    21    12    15 1   
    22    13    14 ar  
    23    13    49 1   
    24    14    47 1   
    25    15    16 1   
    26    15    50 1   
    27    15    51 1   
    28    16    17 1   
    29    16    22 1   
    30    16    52 1   
    31    17    18 1   
    32    17    53 1   
    33    18    30 2   
    34    18    31 2   
    35    18    35 1   
    36    19    20 2   
    37    19    21 1   
    38    19    66 1   
    39    20    23 1   
    40    20    54 1   
    41    21    22 2   
    42    22    23 1   
    43    23    57 1   
    44    24    25 ar  
    45    24    29 ar  
    46    24    67 1   
    47    25    26 ar  
    48    25    58 1   
    49    26    27 ar  
    50    26    60 1   
    51    27    28 ar  
    52    27    66 1   
    53    28    29 ar  
    54    28    61 1   
    55    29    59 1   
    56    32    33 ar  
    57    32    34 ar  
    58    32    62 1   
    59    33    37 ar  
    60    33    63 1   
    61    34    35 ar  
    62    34    64 1   
    63    35    36 ar  
    64    36    37 ar  
    65    36    65 1   
    66    37    38 1   
    67    38    39 1   
    68    38    40 1   
    69    38    41 1   
    70    55    66 1   
    71    56    66 1   
@<TRIPOS>SUBSTRUCTURE
     1 IZ2         1 TEMP              0 ****  ****    0 ROOT
