@<TRIPOS>MOLECULE
molecule
   67    71     1     0     0
SMALL
bcc


@<TRIPOS>ATOM
      1 C1           0.0000     0.0000     0.0000 c3         1 IZ2       0.006400
      2 C2           1.4920     0.0000     0.0000 c3         1 IZ2      -0.168400
      3 C3           1.9600     0.0000     1.4110 c          1 IZ2       0.696500
      4 N4           1.0760    -0.4930     2.2880 ns         1 IZ2      -0.537300
      5 S5          -0.3700    -1.0320     1.4140 s6         1 IZ2       0.693600
      6 O6          -1.8110    -0.5480     2.0250 o          1 IZ2      -0.438800
      7 O7          -0.3820    -2.5930     0.9660 o          1 IZ2      -0.438800
      8 O9           3.0300     0.4200     1.7920 o          1 IZ2      -0.572500
      9 C11         -0.7130    -0.4830    -1.2520 ca         1 IZ2      -0.104300
     10 C12         -0.1330    -1.5570    -2.0640 ca         1 IZ2      -0.082500
     11 C13         -0.8150    -2.0000    -3.2710 ca         1 IZ2      -0.116000
     12 C14         -2.0830    -1.3690    -3.6710 ca         1 IZ2      -0.068300
     13 C15         -2.6610    -0.3020    -2.8580 ca         1 IZ2      -0.116000
     14 C16         -1.9830     0.1420    -1.6530 ca         1 IZ2      -0.082500
     15 C21         -2.7930    -1.8300    -4.9190 c3         1 IZ2      -0.038100
     16 C22         -3.0180    -0.7030    -5.9310 c3         1 IZ2       0.223200
     17 N45         -3.8800    -1.2360    -7.0030 n7         1 IZ2      -0.776100
     18 S1          -4.5490    -0.0680    -8.1070 sy         1 IZ2       0.641200
     19 C23          0.2620     0.6460    -7.0440 cc         1 IZ2       0.280600
     20 C4           0.2770    -0.6780    -7.6390 cd         1 IZ2      -0.251600
     21 N11         -0.9300     0.9250    -6.3400 nc         1 IZ2      -0.600000
     22 C25         -1.6640    -0.2680    -6.5010 cd         1 IZ2       0.346800
     23 N13         -0.9710    -1.2220    -7.2710 na         1 IZ2      -0.295900
     24 C17          5.4420    -0.1340    -7.6230 ca         1 IZ2      -0.134000
     25 C18          4.8820     0.7240    -8.6790 ca         1 IZ2      -0.133500
     26 C19          3.5450     1.3060    -8.5190 ca         1 IZ2      -0.128000
     27 C20          2.7660     1.0330    -7.3020 ca         1 IZ2      -0.094300
     28 C27          3.3280     0.1710    -6.2450 ca         1 IZ2      -0.128000
     29 C6           4.6630    -0.4100    -6.4070 ca         1 IZ2      -0.133500
     30 O1          -6.1500    -0.4480    -8.5360 o          1 IZ2      -0.415300
     31 O2          -4.2520     1.5140    -7.5320 o          1 IZ2      -0.415300
     32 C24         -1.4870     0.8170   -10.8370 ca         1 IZ2      -0.161000
     33 C26         -1.5160    -0.3600   -11.7100 ca         1 IZ2      -0.010000
     34 C7          -2.4330     0.9230    -9.7240 ca         1 IZ2       0.037000
     35 C8          -3.4070    -0.1500    -9.4810 ca         1 IZ2      -0.149500
     36 C9          -3.4390    -1.3250   -10.3530 ca         1 IZ2       0.004000
     37 C10         -2.4970    -1.4330   -11.4670 ca         1 IZ2      -0.208300
     38 C29         -2.5560    -2.6080   -12.3270 c3         1 IZ2       0.650200
     39 F4          -1.2710    -3.3070   -12.1770 f          1 IZ2      -0.225300
     40 F6          -2.7810    -2.2110   -13.7310 f          1 IZ2      -0.225300
     41 F5          -3.6640    -3.5990   -12.1230 f          1 IZ2      -0.225300
     42 H1          -0.3370     1.0060     0.2180 h1         1 IZ2       0.121700
     43 H2C1         1.8560     0.8870    -0.5040 hc         1 IZ2       0.106700
     44 H2C2         1.8560    -0.8870    -0.5040 hc         1 IZ2       0.106700
     45 H4           1.2100    -0.5480     3.2780 hn         1 IZ2       0.368500
     46 H12          0.8010    -2.0180    -1.7680 ha         1 IZ2       0.146500
     47 H16         -2.4110     0.9340    -1.0510 ha         1 IZ2       0.146500
     48 H13         -0.3890    -2.7920    -3.8750 ha         1 IZ2       0.144000
     49 H15         -3.5960     0.1590    -3.1550 ha         1 IZ2       0.144000
     50 H211        -3.7540    -2.2450    -4.6400 hc         1 IZ2       0.057700
     51 H212        -2.2010    -2.6060    -5.3890 hc         1 IZ2       0.057700
     52 H22         -3.5040     0.1360    -5.4490 h1         1 IZ2       0.101700
     53 H45         -4.3150    -2.1310    -6.8960 hn         1 IZ2       0.455800
     54 HA           1.0600    -1.1390    -8.2280 h4         1 IZ2       0.198000
     55 H5C1         1.2010     2.3210    -7.9610 hc         1 IZ2       0.063700
     56 H5C2         1.3930     2.2460    -6.2140 hc         1 IZ2       0.063700
     57 HB          -1.3050    -2.1340    -7.5120 hn         1 IZ2       0.305700
     58 H18          5.4570     0.9250    -9.5740 ha         1 IZ2       0.135500
     59 H6           5.0770    -1.0430    -5.6310 ha         1 IZ2       0.135500
     60 H19          3.1320     1.9380    -9.2960 ha         1 IZ2       0.136500
     61 H27          2.7540    -0.0330    -5.3490 ha         1 IZ2       0.136500
     62 H24         -0.7680     1.6070   -11.0160 ha         1 IZ2       0.160000
     63 H26         -0.8180    -0.4410   -12.5340 ha         1 IZ2       0.158000
     64 H7          -2.4130     1.7930    -9.0780 ha         1 IZ2       0.191000
     65 H9          -4.1600    -2.1130   -10.1740 ha         1 IZ2       0.162000
     66 C5           1.3900     1.6590    -7.1240 c3         1 IZ2      -0.047400
     67 H17          6.4290    -0.5640    -7.7420 ha         1 IZ2       0.136000
@<TRIPOS>BOND
     1     1     2 1
     2     1     5 1
     3     1     9 1
     4     2     3 1
     5     3     4 1
     6     3     8 2
     7     4     5 1
     8     5     6 2
     9     5     7 2
    10     9    10 ar
    11     9    14 ar
    12    10    11 ar
    13    11    12 ar
    14    12    13 ar
    15    12    15 1
    16    13    14 ar
    17    15    16 1
    18    16    17 1
    19    16    22 1
    20    17    18 1
    21    18    30 2
    22    18    31 2
    23    18    35 1
    24    19    20 2
    25    19    21 1
    26    19    66 1
    27    20    23 1
    28    21    22 2
    29    22    23 1
    30    66    27 1
    31    24    25 ar
    32    24    29 ar
    33    25    26 ar
    34    26    27 ar
    35    27    28 ar
    36    28    29 ar
    37    32    33 ar
    38    32    34 ar
    39    33    37 ar
    40    34    35 ar
    41    35    36 ar
    42    36    37 ar
    43    37    38 1
    44    38    39 1
    45    38    40 1
    46    38    41 1
    47     1    42 1
    48     2    43 1
    49     2    44 1
    50     4    45 1
    51    10    46 1
    52    14    47 1
    53    11    48 1
    54    13    49 1
    55    15    50 1
    56    15    51 1
    57    16    52 1
    58    17    53 1
    59    20    54 1
    60    66    55 1
    61    66    56 1
    62    23    57 1
    63    24    67 1
    64    25    58 1
    65    29    59 1
    66    26    60 1
    67    28    61 1
    68    32    62 1
    69    33    63 1
    70    34    64 1
    71    36    65 1
@<TRIPOS>SUBSTRUCTURE
     1 IZ2         1 TEMP              0 ****  ****    0 ROOT
