@<TRIPOS>MOLECULE
IZ3
   62    66     1     0     0
SMALL
bcc


@<TRIPOS>ATOM
      1 C1           0.0000     0.0000     0.0000 c3         1 IZ3       0.179400
      2 C2           1.5040     0.0000     0.0000 c3         1 IZ3      -0.102400
      3 C3           1.9860     0.0000     1.4150 c          1 IZ3       0.647500
      4 N4           1.1100    -0.4840     2.3020 ns         1 IZ3      -0.145300
      5 S5          -0.4110    -0.9590     1.4640 s6         1 IZ3       0.320600
      6 O6          -1.8690    -0.5230     2.0370 o          1 IZ3      -0.392300
      7 O7          -0.3700    -2.5950     1.0700 o          1 IZ3      -0.392300
      8 O9           3.0680     0.4270     1.7800 o          1 IZ3      -0.621500
      9 C11         -0.6870    -0.5240    -1.2480 ca         1 IZ3      -0.109300
     10 C12         -0.1310    -1.6670    -1.9660 ca         1 IZ3      -0.051000
     11 C13         -0.7890    -2.1550    -3.1790 ca         1 IZ3      -0.089500
     12 C14         -2.0190    -1.5130    -3.6520 ca         1 IZ3      -0.084300
     13 C15         -2.5760    -0.3660    -2.9290 ca         1 IZ3      -0.089500
     14 C16         -1.9160     0.1280    -1.7330 ca         1 IZ3      -0.051000
     15 C21         -2.7130    -2.0320    -4.8770 c3         1 IZ3       0.021900
     16 C22         -2.7530    -1.0270    -6.0380 c3         1 IZ3       0.135200
     17 N45         -3.7090    -1.5510    -7.0230 n7         1 IZ3      -0.423100
     18 S1          -4.3430    -0.4460    -8.2100 sy         1 IZ3       0.392200
     19 O1          -5.6720    -1.3260    -8.7660 o          1 IZ3      -0.413800
     20 O2          -4.5960     1.0230    -7.4310 o          1 IZ3      -0.413800
     21 C23          0.5700    -1.3600    -7.6000 ce         1 IZ3       0.056300
     22 C4           0.6570    -0.0080    -6.9390 c1         1 IZ3       0.385500
     23 N11         -0.8370    -1.7560    -7.4530 ne         1 IZ3      -0.596300
     24 C25         -1.3530    -0.8170    -6.6410 cf         1 IZ3       0.662300
     25 N13         -0.6400     0.2700    -6.2990 nf         1 IZ3      -0.704700
     26 C24         -1.6130    -0.7810   -11.2460 ca         1 IZ3       0.064900
     27 C26         -0.7900     0.4310   -11.1380 ca         1 IZ3      -0.031000
     28 C7          -2.7240    -0.9960   -10.3290 ca         1 IZ3      -0.026000
     29 C8          -3.0020    -0.0200    -9.2830 ca         1 IZ3      -0.041500
     30 C9          -2.1950     1.2030    -9.1780 ca         1 IZ3       0.039000
     31 C10         -1.0880     1.4280   -10.1070 ca         1 IZ3      -0.117000
     32 C17          0.9460    -6.4750    -8.6010 ca         1 IZ3      -0.068000
     33 C19          1.7450    -5.4670    -9.3160 ca         1 IZ3      -0.099000
     34 C20          1.9220    -4.1280    -8.7420 ca         1 IZ3      -0.064000
     35 C27          1.2950    -3.7950    -7.4560 ca         1 IZ3      -0.120300
     36 C5           0.5200    -4.8110    -6.7330 ca         1 IZ3       0.111900
     37 C6           0.3430    -6.1470    -7.3030 ca         1 IZ3      -0.096000
     38 F2          -0.0540    -4.4410    -5.4540 f          1 IZ3      -0.162900
     39 H1          -0.3320     1.0180     0.1640 h1         1 IZ3       0.082700
     40 H2C1         1.8660    -0.8870    -0.5060 hc         1 IZ3       0.068200
     41 H2C2         1.8660     0.8870    -0.5060 hc         1 IZ3       0.068200
     42 H4           1.2750    -0.5690     3.2850 hn         1 IZ3       0.245500
     43 H12          0.7780    -2.1400    -1.6150 ha         1 IZ3       0.114000
     44 H16         -2.3270     0.9750    -1.1980 ha         1 IZ3       0.114000
     45 H13         -0.3790    -3.0030    -3.7140 ha         1 IZ3       0.118500
     46 H15         -3.4830     0.1100    -3.2830 ha         1 IZ3       0.118500
     47 H211        -2.1990    -2.9260    -5.2120 hc         1 IZ3       0.039200
     48 H212        -3.7300    -2.2960    -4.6130 hc         1 IZ3       0.039200
     49 H22         -3.1190    -0.0780    -5.6660 h1         1 IZ3       0.080700
     50 H45         -4.1640    -2.4270    -6.8620 hn         1 IZ3       0.364800
     51 H181         1.1640    -2.4220    -5.8310 hc         1 IZ3       0.054200
     52 H182         2.4810    -2.0970    -6.9550 hc         1 IZ3       0.054200
     53 H26          0.0290     0.5930   -11.8290 ha         1 IZ3       0.118000
     54 H7          -3.3790    -1.8490   -10.4620 ha         1 IZ3       0.140000
     55 H10         -0.4860     2.3260   -10.0280 ha         1 IZ3       0.128000
     56 H9          -2.4190     1.9380    -8.4140 ha         1 IZ3       0.149000
     57 H19          2.1990    -5.7120   -10.2690 ha         1 IZ3       0.112000
     58 H6          -0.2380    -6.8910    -6.7710 ha         1 IZ3       0.121000
     59 H20          2.5020    -3.3830    -9.2720 ha         1 IZ3       0.112000
     60 C18          1.4440    -2.3980    -6.8770 c3         1 IZ3       0.085100
     61 F1          -1.4840    -1.8750   -12.1920 f          1 IZ3      -0.148900
     62 H17          0.8160    -7.4630    -9.0250 ha         1 IZ3       0.113000
@<TRIPOS>BOND
     1     1     2 1   
     2     1     5 1   
     3     1     9 1   
     4     1    39 1   
     5     2     3 1   
     6     2    40 1   
     7     2    41 1   
     8     3     4 1   
     9     3     8 2   
    10     4     5 1   
    11     4    42 1   
    12     5     6 2   
    13     5     7 2   
    14     9    10 ar  
    15     9    14 ar  
    16    10    11 ar  
    17    10    43 1   
    18    11    12 ar  
    19    11    45 1   
    20    12    13 ar  
    21    12    15 1   
    22    13    14 ar  
    23    13    46 1   
    24    14    44 1   
    25    15    16 1   
    26    15    47 1   
    27    15    48 1   
    28    16    17 1   
    29    16    24 1   
    30    16    49 1   
    31    17    18 1   
    32    17    50 1   
    33    18    19 2   
    34    18    20 2   
    35    18    29 1   
    36    21    22 2   
    37    21    23 1   
    38    21    60 1   
    39    22    25 2   
    40    23    24 2   
    41    24    25 1   
    42    26    27 ar  
    43    26    28 ar  
    44    26    61 1   
    45    27    31 ar  
    46    27    53 1   
    47    28    29 ar  
    48    28    54 1   
    49    29    30 ar  
    50    30    31 ar  
    51    30    56 1   
    52    31    55 1   
    53    32    33 ar  
    54    32    37 ar  
    55    32    62 1   
    56    33    34 ar  
    57    33    57 1   
    58    34    35 ar  
    59    34    59 1   
    60    35    36 ar  
    61    35    60 1   
    62    36    37 ar  
    63    36    38 1   
    64    37    58 1   
    65    51    60 1   
    66    52    60 1   
@<TRIPOS>SUBSTRUCTURE
     1 IZ3         1 TEMP              0 ****  ****    0 ROOT
