@<TRIPOS>MOLECULE
IZ4
   69    73     1     0     0
SMALL
bcc


@<TRIPOS>ATOM
      1 C1           0.0000     0.0000     0.0000 c3         1 IZ4       0.170400
      2 C2           1.5020     0.0000     0.0000 c3         1 IZ4      -0.099400
      3 C3           1.9780     0.0000     1.4090 c          1 IZ4       0.648500
      4 N4           1.0970    -0.5040     2.2720 ns         1 IZ4      -0.119300
      5 S5          -0.4690    -0.9470     1.4600 s6         1 IZ4       0.255600
      6 O6          -1.8700    -0.1640     1.9580 o          1 IZ4      -0.362800
      7 O7          -0.6740    -2.5290     0.9260 o          1 IZ4      -0.362800
      8 O9           3.0590     0.4480     1.7910 o          1 IZ4      -0.624500
      9 C11         -0.6850    -0.4880    -1.2510 ca         1 IZ4      -0.109300
     10 C12         -0.2050    -1.6950    -1.9330 ca         1 IZ4      -0.054500
     11 C13         -0.8810    -2.1610    -3.1560 ca         1 IZ4      -0.096000
     12 C14         -2.0330    -1.4100    -3.6850 ca         1 IZ4      -0.083300
     13 C15         -2.5030    -0.2100    -2.9990 ca         1 IZ4      -0.096000
     14 C16         -1.8290     0.2530    -1.7810 ca         1 IZ4      -0.054500
     15 C21         -2.7270    -1.8750    -4.9330 c3         1 IZ4       0.017900
     16 C22         -2.6250    -0.8590    -6.0880 c3         1 IZ4       0.180200
     17 N45         -3.5490    -1.3010    -7.1450 n7         1 IZ4      -0.398100
     18 S1          -4.0260    -0.1950    -8.4180 sy         1 IZ4       0.351200
     19 O1          -5.4710    -0.8990    -9.0110 o          1 IZ4      -0.405300
     20 O2          -4.2180     1.3330    -7.7270 o          1 IZ4      -0.405300
     21 C23          0.6390    -1.7720    -7.6410 c3         1 IZ4       0.124500
     22 C4           1.0100    -0.4650    -6.9600 c3         1 IZ4       0.125800
     23 N11         -0.7880    -1.9710    -7.3690 n2         1 IZ4      -0.672900
     24 C25         -1.1780    -0.8590    -6.5880 c2         1 IZ4       0.419200
     25 N13         -0.1940     0.1240    -6.3330 nu         1 IZ4      -0.490200
     26 C24         -1.5320    -1.2980   -11.5570 ca         1 IZ4       0.071900
     27 C26         -0.4690    -0.2880   -11.4920 ca         1 IZ4      -0.045000
     28 C7          -2.6360    -1.2640   -10.6040 ca         1 IZ4       0.021000
     29 C8          -2.6850    -0.2280    -9.5840 ca         1 IZ4      -0.015500
     30 C9          -1.6240     0.7860    -9.5120 ca         1 IZ4       0.003000
     31 C10         -0.5170     0.7540   -10.4680 ca         1 IZ4      -0.117000
     32 C18          1.3920    -2.9700    -7.0260 c3         1 IZ4      -0.011400
     33 C17          2.3770    -6.1530    -6.5250 ca         1 IZ4      -0.099500
     34 C19          1.0810    -5.5280    -6.8320 ca         1 IZ4      -0.085300
     35 C20         -0.1650    -6.1200    -6.3160 ca         1 IZ4      -0.099500
     36 C28         -0.1110    -7.3370    -5.4970 ca         1 IZ4      -0.101500
     37 C5           1.1880    -7.9620    -5.1950 ca         1 IZ4      -0.106000
     38 C6           2.4280    -7.3700    -5.7070 ca         1 IZ4      -0.101500
     39 H1          -0.3190     1.0220     0.1650 h1         1 IZ4       0.088700
     40 H2C1         1.8650     0.8870    -0.5050 hc         1 IZ4       0.064700
     41 H2C2         1.8650    -0.8870    -0.5050 hc         1 IZ4       0.064700
     42 H4           1.2750    -0.6240     3.2500 hn         1 IZ4       0.239500
     43 H12          0.6430    -2.2420    -1.5380 ha         1 IZ4       0.114500
     44 H16         -2.1800     1.1430    -1.2740 ha         1 IZ4       0.114500
     45 H13         -0.5320    -3.0510    -3.6650 ha         1 IZ4       0.118000
     46 H15         -3.3500     0.3400    -3.3900 ha         1 IZ4       0.118000
     47 H211        -2.2820    -2.8110    -5.2510 hc         1 IZ4       0.041700
     48 H212        -3.7730    -2.0440    -4.7080 hc         1 IZ4       0.041700
     49 H22         -2.9000     0.1300    -5.7410 h1         1 IZ4       0.051700
     50 H45         -3.9140    -2.2320    -7.1310 hn         1 IZ4       0.359800
     51 H23          0.8160    -1.7100    -8.7080 h1         1 IZ4       0.036700
     52 H4C1         1.2970     0.2150    -7.7530 h1         1 IZ4       0.030200
     53 H4C2         1.6730    -0.7290    -6.1450 h1         1 IZ4       0.030200
     54 H181         2.4580    -2.8060    -7.1290 hc         1 IZ4       0.013200
     55 H182         1.1470    -3.0370    -5.9730 hc         1 IZ4       0.013200
     56 HA          -0.2780     0.9750    -5.8130 hn         1 IZ4       0.333800
     57 H26          0.3490    -0.3150   -12.2020 ha         1 IZ4       0.120000
     58 H7          -3.4410    -1.9850   -10.6830 ha         1 IZ4       0.138000
     59 H10          0.2660     1.5010   -10.4170 ha         1 IZ4       0.117000
     60 H9          -1.6620     1.5570    -8.7520 ha         1 IZ4       0.125000
     61 H271         1.7010    -4.4250    -8.5370 hc         1 IZ4       0.025700
     62 H272         0.0210    -4.1870    -8.0910 hc         1 IZ4       0.025700
     63 H6           3.3820    -7.8310    -5.4820 ha         1 IZ4       0.103000
     64 H20         -1.1190    -5.6580    -6.5390 ha         1 IZ4       0.106500
     65 H28         -1.0260    -7.7760    -5.1170 ha         1 IZ4       0.103000
     66 H5           1.2280    -8.8600    -4.5920 ha         1 IZ4       0.103000
     67 C27          1.0270    -4.2800    -7.7010 c3         1 IZ4       0.025900
     68 F1          -1.4810    -2.3340   -12.5640 f          1 IZ4      -0.145900
     69 H17          3.2930    -5.7150    -6.9030 ha         1 IZ4       0.106500
@<TRIPOS>BOND
     1     1     2 1   
     2     1     5 1   
     3     1     9 1   
     4     1    39 1   
     5     2     3 1   
     6     2    40 1   
     7     2    41 1   
     8     3     4 1   
     9     3     8 2   
    10     4     5 1   
    11     4    42 1   
    12     5     6 2   
    13     5     7 2   
    14     9    10 ar  
    15     9    14 ar  
    16    10    11 ar  
    17    10    43 1   
    18    11    12 ar  
    19    11    45 1   
    20    12    13 ar  
    21    12    15 1   
    22    13    14 ar  
    23    13    46 1   
    24    14    44 1   
    25    15    16 1   
    26    15    47 1   
    27    15    48 1   
    28    16    17 1   
    29    16    24 1   
    30    16    49 1   
    31    17    18 1   
    32    17    50 1   
    33    18    19 2   
    34    18    20 2   
    35    18    29 1   
    36    21    22 1   
    37    21    23 1   
    38    21    32 1   
    39    21    51 1   
    40    22    25 1   
    41    22    52 1   
    42    22    53 1   
    43    23    24 2   
    44    24    25 1   
    45    25    56 1   
    46    26    27 ar  
    47    26    28 ar  
    48    26    68 1   
    49    27    31 ar  
    50    27    57 1   
    51    28    29 ar  
    52    28    58 1   
    53    29    30 ar  
    54    30    31 ar  
    55    30    60 1   
    56    31    59 1   
    57    32    54 1   
    58    32    55 1   
    59    32    67 1   
    60    33    34 ar  
    61    33    38 ar  
    62    33    69 1   
    63    34    35 ar  
    64    34    67 1   
    65    35    36 ar  
    66    35    64 1   
    67    36    37 ar  
    68    36    65 1   
    69    37    38 ar  
    70    37    66 1   
    71    38    63 1   
    72    61    67 1   
    73    62    67 1   
@<TRIPOS>SUBSTRUCTURE
     1 IZ4         1 TEMP              0 ****  ****    0 ROOT
