@<TRIPOS>MOLECULE
molecule
   70    74     1     0     0
SMALL
bcc


@<TRIPOS>ATOM
      1 C1           0.0000     0.0000     0.0000 c3         1 IZ5       0.031400
      2 C2           1.5020     0.0000     0.0000 c3         1 IZ5      -0.158400
      3 C3           1.9800     0.0000     1.3990 c          1 IZ5       0.699500
      4 N4           1.0630    -0.3810     2.2910 ns         1 IZ5      -0.496300
      5 S5          -0.4580    -0.9380     1.4470 s6         1 IZ5       0.544600
      6 O6          -1.8500    -0.3530     2.1620 o          1 IZ5      -0.389800
      7 O7          -0.4260    -2.5720     0.9390 o          1 IZ5      -0.389800
      8 O9           3.1100     0.3080     1.7470 o          1 IZ5      -0.586500
      9 C11         -0.6750    -0.4930    -1.2690 ca         1 IZ5      -0.112300
     10 C12         -0.0670    -1.5790    -2.0520 ca         1 IZ5      -0.088500
     11 C13         -0.7150    -2.0270    -3.2950 ca         1 IZ5      -0.123000
     12 C14         -1.9640    -1.3900    -3.7280 ca         1 IZ5      -0.074300
     13 C15         -2.5700    -0.3090    -2.9480 ca         1 IZ5      -0.123000
     14 C16         -1.9240     0.1400    -1.7200 ca         1 IZ5      -0.088500
     15 C21         -2.6670    -1.8410    -4.9830 c3         1 IZ5      -0.037100
     16 C22         -2.6540    -0.7600    -6.0640 c3         1 IZ5       0.242200
     17 N45         -3.5560    -1.1790    -7.1280 n7         1 IZ5      -0.756100
     18 S1          -3.9360    -0.0550    -8.3800 sy         1 IZ5       0.649200
     19 O1          -5.3920    -0.8220    -8.9440 o          1 IZ5      -0.430300
     20 O2          -4.1090     1.4350    -7.5980 o          1 IZ5      -0.430300
     21 C23          0.6270    -1.2160    -7.6960 cc         1 IZ5       0.303600
     22 C4           0.8410     0.1050    -7.1560 cd         1 IZ5      -0.271600
     23 N11         -0.6720    -1.6510    -7.3650 nc         1 IZ5      -0.650000
     24 C25         -1.2550    -0.6030    -6.6240 cd         1 IZ5       0.319800
     25 N13         -0.3540     0.4690    -6.4920 na         1 IZ5      -0.283900
     26 C24         -0.5500     0.4780   -10.7490 ca         1 IZ5      -0.131000
     27 C26         -0.7120    -0.5960   -11.7370 ca         1 IZ5      -0.081000
     28 C7          -1.5690     0.6560    -9.7060 ca         1 IZ5      -0.039000
     29 C8          -2.7260    -0.2360    -9.6590 ca         1 IZ5      -0.129500
     30 C9          -2.8900    -1.3020   -10.6420 ca         1 IZ5      -0.015000
     31 C10         -1.8780    -1.4790   -11.6780 ca         1 IZ5       0.077900
     32 C17          0.3150    -7.2280    -5.6360 ca         1 IZ5      -0.130500
     33 C18          1.5170    -8.0710    -5.6940 ca         1 IZ5      -0.137000
     34 C19          2.8270    -7.5000    -6.0560 ca         1 IZ5      -0.130500
     35 C20          2.9310    -6.0730    -6.3670 ca         1 IZ5      -0.130000
     36 C27          1.7250    -5.2330    -6.3130 ca         1 IZ5      -0.088300
     37 C6           0.4180    -5.8010    -5.9450 ca         1 IZ5      -0.130000
     38 F1          -2.0240    -2.5580   -12.6400 f          1 IZ5      -0.145900
     39 C30          1.5450    -3.5310    -8.1540 c3         1 IZ5      -0.066400
     40 C29          1.8230    -3.7800    -6.6690 c3         1 IZ5      -0.032100
     41 H1          -0.3210     1.0220     0.1630 h1         1 IZ5       0.112700
     42 H2C1         1.8640    -0.8870    -0.5060 hc         1 IZ5       0.106200
     43 H2C2         1.8640     0.8870    -0.5060 hc         1 IZ5       0.106200
     44 H4           1.1910    -0.3630     3.2840 hn         1 IZ5       0.363500
     45 H12          0.8550    -2.0410    -1.7200 ha         1 IZ5       0.147000
     46 H16         -2.3660     0.9390    -1.1380 ha         1 IZ5       0.147000
     47 H13         -0.2770    -2.8260    -3.8810 ha         1 IZ5       0.152500
     48 H15         -3.4910     0.1540    -3.2810 ha         1 IZ5       0.152500
     49 H211        -3.6950    -2.0860    -4.7420 hc         1 IZ5       0.074200
     50 H212        -2.1740    -2.7270    -5.3640 hc         1 IZ5       0.074200
     51 H22         -2.9910     0.1810    -5.6460 h1         1 IZ5       0.072700
     52 H45         -4.0950    -2.0160    -7.0260 hn         1 IZ5       0.476800
     53 HA           1.7400     0.7030    -7.2450 h4         1 IZ5       0.185000
     54 H5C1         1.3960    -1.9150    -9.5530 hc         1 IZ5       0.046700
     55 H5C2         2.6140    -1.6800    -8.3010 hc         1 IZ5       0.046700
     56 HB          -0.5260     1.3310    -6.0130 hn         1 IZ5       0.313700
     57 H24          0.3110     1.1340   -10.7910 ha         1 IZ5       0.153000
     58 H26          0.0340    -0.7370   -12.5100 ha         1 IZ5       0.156000
     59 H7          -1.4620     1.4450    -8.9710 ha         1 IZ5       0.153000
     60 H9          -3.7520    -1.9570   -10.6010 ha         1 IZ5       0.184000
     61 H301         0.5580    -3.9050    -8.3960 hc         1 IZ5       0.053200
     62 H302         2.2800    -4.0640    -8.7450 hc         1 IZ5       0.053200
     63 H18          1.4410    -9.1270    -5.4640 ha         1 IZ5       0.132000
     64 H6          -0.4610    -5.1700    -5.9080 ha         1 IZ5       0.135500
     65 H19          3.7070    -8.1310    -6.0940 ha         1 IZ5       0.135500
     66 H20          3.8870    -5.6410    -6.6370 ha         1 IZ5       0.135500
     67 H291         2.8200    -3.4270    -6.4330 hc         1 IZ5       0.046700
     68 H292         1.1040    -3.2240    -6.0780 hc         1 IZ5       0.046700
     69 C5           1.6120    -2.0410    -8.4990 c3         1 IZ5      -0.089700
     70 H17         -0.6420    -7.6600    -5.3660 ha         1 IZ5       0.135500
@<TRIPOS>BOND
     1     1     2 1
     2     1     5 1
     3     1     9 1
     4     2     3 1
     5     3     4 1
     6     3     8 2
     7     4     5 1
     8     5     6 2
     9     5     7 2
    10     9    10 ar
    11     9    14 ar
    12    10    11 ar
    13    11    12 ar
    14    12    13 ar
    15    12    15 1
    16    13    14 ar
    17    15    16 1
    18    16    17 1
    19    16    24 1
    20    17    18 1
    21    18    19 2
    22    18    20 2
    23    18    29 1
    24    21    22 2
    25    21    23 1
    26    21    69 1
    27    22    25 1
    28    23    24 2
    29    24    25 1
    30    26    27 ar
    31    26    28 ar
    32    27    31 ar
    33    28    29 ar
    34    29    30 ar
    35    30    31 ar
    36    31    38 1
    37    69    39 1
    38    32    33 ar
    39    32    37 ar
    40    33    34 ar
    41    34    35 ar
    42    35    36 ar
    43    36    37 ar
    44    36    40 1
    45    39    40 1
    46     1    41 1
    47     2    42 1
    48     2    43 1
    49     4    44 1
    50    10    45 1
    51    14    46 1
    52    11    47 1
    53    13    48 1
    54    15    49 1
    55    15    50 1
    56    16    51 1
    57    17    52 1
    58    22    53 1
    59    69    54 1
    60    69    55 1
    61    25    56 1
    62    26    57 1
    63    27    58 1
    64    28    59 1
    65    30    60 1
    66    39    61 1
    67    39    62 1
    68    32    70 1
    69    33    63 1
    70    37    64 1
    71    34    65 1
    72    35    66 1
    73    40    67 1
    74    40    68 1
@<TRIPOS>SUBSTRUCTURE
     1 IZ5         1 TEMP              0 ****  ****    0 ROOT
