@<TRIPOS>MOLECULE
IZ5
   70    74     1     0     0
SMALL
bcc


@<TRIPOS>ATOM
      1 C1           0.0000     0.0000     0.0000 c3         1 IZ5       0.176400
      2 C2           1.5020     0.0000     0.0000 c3         1 IZ5      -0.101400
      3 C3           1.9800     0.0000     1.3990 c          1 IZ5       0.649500
      4 N4           1.0630    -0.3810     2.2910 ns         1 IZ5      -0.129300
      5 S5          -0.4580    -0.9380     1.4470 s6         1 IZ5       0.256600
      6 O6          -1.8500    -0.3530     2.1620 o          1 IZ5      -0.365300
      7 O7          -0.4260    -2.5720     0.9390 o          1 IZ5      -0.365300
      8 O9           3.1100     0.3080     1.7470 o          1 IZ5      -0.624500
      9 C11         -0.6750    -0.4930    -1.2690 ca         1 IZ5      -0.114300
     10 C12         -0.0670    -1.5790    -2.0520 ca         1 IZ5      -0.057500
     11 C13         -0.7150    -2.0270    -3.2950 ca         1 IZ5      -0.094000
     12 C14         -1.9640    -1.3900    -3.7280 ca         1 IZ5      -0.080300
     13 C15         -2.5700    -0.3090    -2.9480 ca         1 IZ5      -0.094000
     14 C16         -1.9240     0.1400    -1.7200 ca         1 IZ5      -0.057500
     15 C21         -2.6670    -1.8410    -4.9830 c3         1 IZ5       0.016900
     16 C22         -2.6540    -0.7600    -6.0640 c3         1 IZ5       0.196200
     17 N45         -3.5560    -1.1790    -7.1280 n7         1 IZ5      -0.403100
     18 S1          -3.9360    -0.0550    -8.3800 sy         1 IZ5       0.324200
     19 O1          -5.3920    -0.8220    -8.9440 o          1 IZ5      -0.408300
     20 O2          -4.1090     1.4350    -7.5980 o          1 IZ5      -0.408300
     21 C23          0.6270    -1.2160    -7.6960 cc         1 IZ5       0.315600
     22 C4           0.8410     0.1050    -7.1560 cd         1 IZ5      -0.448600
     23 N11         -0.6720    -1.6510    -7.3650 nc         1 IZ5      -0.625000
     24 C25         -1.2550    -0.6030    -6.6240 cd         1 IZ5       0.123800
     25 N13         -0.3540     0.4690    -6.4920 na         1 IZ5       0.279100
     26 C24         -0.5500     0.4780   -10.7490 ca         1 IZ5      -0.104000
     27 C26         -0.7120    -0.5960   -11.7370 ca         1 IZ5      -0.044000
     28 C7          -1.5690     0.6560    -9.7060 ca         1 IZ5      -0.008000
     29 C8          -2.7260    -0.2360    -9.6590 ca         1 IZ5       0.000500
     30 C9          -2.8900    -1.3020   -10.6420 ca         1 IZ5       0.028000
     31 C10         -1.8780    -1.4790   -11.6780 ca         1 IZ5       0.072900
     32 C17          0.3150    -7.2280    -5.6360 ca         1 IZ5      -0.099000
     33 C18          1.5170    -8.0710    -5.6940 ca         1 IZ5      -0.106000
     34 C19          2.8270    -7.5000    -6.0560 ca         1 IZ5      -0.099000
     35 C20          2.9310    -6.0730    -6.3670 ca         1 IZ5      -0.099000
     36 C27          1.7250    -5.2330    -6.3130 ca         1 IZ5      -0.091300
     37 C6           0.4180    -5.8010    -5.9450 ca         1 IZ5      -0.099000
     38 F1          -2.0240    -2.5580   -12.6400 f          1 IZ5      -0.147900
     39 C30          1.5450    -3.5310    -8.1540 c3         1 IZ5      -0.017400
     40 C29          1.8230    -3.7800    -6.6690 c3         1 IZ5       0.024900
     41 H1          -0.3210     1.0220     0.1630 h1         1 IZ5       0.080700
     42 H2C1         1.8640    -0.8870    -0.5060 hc         1 IZ5       0.068700
     43 H2C2         1.8640     0.8870    -0.5060 hc         1 IZ5       0.068700
     44 H4           1.1910    -0.3630     3.2840 hn         1 IZ5       0.244500
     45 H12          0.8550    -2.0410    -1.7200 ha         1 IZ5       0.115500
     46 H16         -2.3660     0.9390    -1.1380 ha         1 IZ5       0.115500
     47 H13         -0.2770    -2.8260    -3.8810 ha         1 IZ5       0.120000
     48 H15         -3.4910     0.1540    -3.2810 ha         1 IZ5       0.120000
     49 H211        -3.6950    -2.0860    -4.7420 hc         1 IZ5       0.040700
     50 H212        -2.1740    -2.7270    -5.3640 hc         1 IZ5       0.040700
     51 H22         -2.9910     0.1810    -5.6460 h1         1 IZ5       0.042700
     52 H45         -4.0950    -2.0160    -7.0260 hn         1 IZ5       0.366800
     53 HA           1.7400     0.7030    -7.2450 h4         1 IZ5       0.160000
     54 H5C1         1.3960    -1.9150    -9.5530 hc         1 IZ5       0.013700
     55 H5C2         2.6140    -1.6800    -8.3010 hc         1 IZ5       0.013700
     56 HB          -0.5260     1.3310    -6.0130 hn         1 IZ5       0.132700
     57 H24          0.3110     1.1340   -10.7910 ha         1 IZ5       0.118000
     58 H26          0.0340    -0.7370   -12.5100 ha         1 IZ5       0.119000
     59 H7          -1.4620     1.4450    -8.9710 ha         1 IZ5       0.115000
     60 H9          -3.7520    -1.9570   -10.6010 ha         1 IZ5       0.149000
     61 H301         0.5580    -3.9050    -8.3960 hc         1 IZ5       0.023200
     62 H302         2.2800    -4.0640    -8.7450 hc         1 IZ5       0.023200
     63 H18          1.4410    -9.1270    -5.4640 ha         1 IZ5       0.101000
     64 H6          -0.4610    -5.1700    -5.9080 ha         1 IZ5       0.107000
     65 H19          3.7070    -8.1310    -6.0940 ha         1 IZ5       0.103500
     66 H20          3.8870    -5.6410    -6.6370 ha         1 IZ5       0.107000
     67 H291         2.8200    -3.4270    -6.4330 hc         1 IZ5       0.017700
     68 H292         1.1040    -3.2240    -6.0780 hc         1 IZ5       0.017700
     69 C5           1.6120    -2.0410    -8.4990 c3         1 IZ5      -0.024700
     70 H17         -0.6420    -7.6600    -5.3660 ha         1 IZ5       0.103500
@<TRIPOS>BOND
     1     1     2 1   
     2     1     5 1   
     3     1     9 1   
     4     1    41 1   
     5     2     3 1   
     6     2    42 1   
     7     2    43 1   
     8     3     4 1   
     9     3     8 2   
    10     4     5 1   
    11     4    44 1   
    12     5     6 2   
    13     5     7 2   
    14     9    10 ar  
    15     9    14 ar  
    16    10    11 ar  
    17    10    45 1   
    18    11    12 ar  
    19    11    47 1   
    20    12    13 ar  
    21    12    15 1   
    22    13    14 ar  
    23    13    48 1   
    24    14    46 1   
    25    15    16 1   
    26    15    49 1   
    27    15    50 1   
    28    16    17 1   
    29    16    24 1   
    30    16    51 1   
    31    17    18 1   
    32    17    52 1   
    33    18    19 2   
    34    18    20 2   
    35    18    29 1   
    36    21    22 2   
    37    21    23 1   
    38    21    69 1   
    39    22    25 1   
    40    22    53 1   
    41    23    24 2   
    42    24    25 1   
    43    25    56 1   
    44    26    27 ar  
    45    26    28 ar  
    46    26    57 1   
    47    27    31 ar  
    48    27    58 1   
    49    28    29 ar  
    50    28    59 1   
    51    29    30 ar  
    52    30    31 ar  
    53    30    60 1   
    54    31    38 1   
    55    32    33 ar  
    56    32    37 ar  
    57    32    70 1   
    58    33    34 ar  
    59    33    63 1   
    60    34    35 ar  
    61    34    65 1   
    62    35    36 ar  
    63    35    66 1   
    64    36    37 ar  
    65    36    40 1   
    66    37    64 1   
    67    39    40 1   
    68    39    61 1   
    69    39    62 1   
    70    39    69 1   
    71    40    67 1   
    72    40    68 1   
    73    54    69 1   
    74    55    69 1   
@<TRIPOS>SUBSTRUCTURE
     1 IZ5         1 TEMP              0 ****  ****    0 ROOT
