@<TRIPOS>MOLECULE
IZ9
   36    39     1     0     0
SMALL
bcc


@<TRIPOS>ATOM
      1 NAB         -1.5550    -0.0120     2.0430 n1         1 IZ9      -0.096000
      2 CAE         -0.8610     0.0000     1.1440 c1         1 IZ9      -0.044000
      3 CAS          0.0000     0.0000     0.0000 c2         1 IZ9      -0.037000
      4 C5           1.4700     0.0000     0.0000 c2         1 IZ9      -0.233000
      5 C6           2.4540     0.0000     0.9990 c2         1 IZ9       0.086000
      6 NAD          2.1050     0.0010     2.3370 nv         1 IZ9       0.065000
      7 N1           3.7310     0.0000     0.6300 n2         1 IZ9      -0.199000
      8 C2           4.0700    -0.0000    -0.6530 c2         1 IZ9       0.072000
      9 NAC          5.4130    -0.0010    -0.9880 nv         1 IZ9      -0.025000
     10 N3           3.1730    -0.0010    -1.6250 n2         1 IZ9      -0.134000
     11 C4           1.8690    -0.0000    -1.3480 c2         1 IZ9      -0.106000
     12 NAN          0.7400    -0.0010    -2.1260 na         1 IZ9       0.399000
     13 CAT         -0.3860    -0.0060    -1.3390 c2         1 IZ9      -0.111000
     14 CAG         -1.7640    -0.0140    -1.8260 c2         1 IZ9      -0.173000
     15 CAF         -2.0100    -0.0190    -3.1520 c2         1 IZ9      -0.258000
     16 CAQ         -3.3980    -0.0260    -3.6430 c3         1 IZ9       0.113000
     17 CAJ         -3.6570    -0.0330    -5.0170 c2         1 IZ9      -0.149500
     18 CAH         -4.9600    -0.0400    -5.4690 c2         1 IZ9      -0.104500
     19 CAO         -6.0090    -0.0410    -4.5670 c2         1 IZ9      -0.005000
     20 CAA         -7.4300    -0.0480    -5.0690 c3         1 IZ9      -0.092000
     21 CAI         -5.7610    -0.0340    -3.2050 c2         1 IZ9      -0.104500
     22 CAK         -4.4640    -0.0330    -2.7380 c2         1 IZ9      -0.149500
     23 HAD1         1.2870     0.5030     2.6200 hn         1 IZ9       0.061500
     24 HAD2         2.4390    -0.5430     3.1080 hn         1 IZ9       0.061500
     25 HAC1         6.2450     0.5530    -0.9350 hn         1 IZ9       0.054000
     26 HAC2         5.8280    -0.8840    -1.2100 hn         1 IZ9       0.054000
     27 HAN          0.7070     0.0230    -3.1260 hn         1 IZ9       0.091000
     28 HAG         -2.4280    -0.7830    -1.4520 ha         1 IZ9       0.107000
     29 HAF         -3.0860    -0.1370    -3.1050 DU         1 IZ9       0.163000
     30 HAJ         -2.9560     0.4920    -5.6560 ha         1 IZ9       0.143500
     31 HAK         -4.6040     0.2540    -1.7030 ha         1 IZ9       0.143500
     32 HAH         -4.7340     0.0610    -6.5230 ha         1 IZ9       0.126500
     33 HAA1        -7.5440    -0.3780    -6.0950 hc         1 IZ9       0.051000
     34 HAA2        -8.1460     0.7610    -4.9850 hc         1 IZ9       0.051000
     35 HAA3        -7.8490    -0.9840    -4.7190 hc         1 IZ9       0.051000
     36 HAI         -6.6400    -0.2330    -2.6040 ha         1 IZ9       0.126500
@<TRIPOS>BOND
     1     1     2 1   
     2     2     3 1   
     3     3     4 1   
     4     3    13 1   
     5     4     5 1   
     6     4    11 1   
     7     5     6 1   
     8     5     7 1   
     9     6    23 1   
    10     6    24 1   
    11     7     8 1   
    12     8     9 1   
    13     8    10 1   
    14     9    25 1   
    15     9    26 1   
    16    10    11 1   
    17    11    12 1   
    18    12    13 1   
    19    12    27 1   
    20    13    14 1   
    21    14    15 1   
    22    14    28 1   
    23    15    16 1   
    24    15    29 1   
    25    16    17 1   
    26    16    22 1   
    27    16    29 1   
    28    17    18 1   
    29    17    30 1   
    30    18    19 1   
    31    18    32 1   
    32    19    20 1   
    33    19    21 1   
    34    20    33 1   
    35    20    34 1   
    36    20    35 1   
    37    21    22 1   
    38    21    36 1   
    39    22    31 1   
@<TRIPOS>SUBSTRUCTURE
     1 IZ9         1 TEMP              0 ****  ****    0 ROOT
