@<TRIPOS>MOLECULE
molecule
   36    38     1     0     0
SMALL
bcc


@<TRIPOS>ATOM
      1 NAB         -1.5470    -0.0190     2.0490 n1         1 IZ9      -0.389800
      2 CAE         -0.8610     0.0000     1.1440 cg         1 IZ9       0.240500
      3 CAS          0.0000     0.0000     0.0000 cc         1 IZ9      -0.013900
      4 C5           1.4700     0.0000     0.0000 ca         1 IZ9      -0.415400
      5 C6           2.4540     0.0000     0.9990 ca         1 IZ9       0.809200
      6 NAD          2.1050     0.0010     2.3370 nv         1 IZ9      -1.001500
      7 N1           3.7310     0.0000     0.6300 nb         1 IZ9      -0.874000
      8 C2           4.0700    -0.0000    -0.6530 ca         1 IZ9       1.004900
      9 NAC          5.4130    -0.0010    -0.9880 nv         1 IZ9      -0.989500
     10 N3           3.1730    -0.0010    -1.6250 nb         1 IZ9      -0.867000
     11 C4           1.8690    -0.0000    -1.3480 ca         1 IZ9       0.567800
     12 NAN          0.7400    -0.0010    -2.1260 na         1 IZ9      -0.265100
     13 CAT         -0.3860    -0.0060    -1.3390 cd         1 IZ9       0.012900
     14 CAG         -1.7640    -0.0140    -1.8260 cf         1 IZ9      -0.122000
     15 CAF         -2.0100    -0.0190    -3.1520 ce         1 IZ9      -0.091200
     16 CAQ         -3.3980    -0.0260    -3.6430 ca         1 IZ9      -0.075800
     17 CAJ         -3.6570    -0.0330    -5.0170 ca         1 IZ9      -0.107500
     18 CAH         -4.9600    -0.0400    -5.4690 ca         1 IZ9      -0.128000
     19 CAO         -6.0090    -0.0410    -4.5670 ca         1 IZ9      -0.071300
     20 CAA         -7.4300    -0.0480    -5.0690 c3         1 IZ9      -0.050800
     21 CAI         -5.7610    -0.0340    -3.2050 ca         1 IZ9      -0.128000
     22 CAK         -4.4640    -0.0330    -2.7380 ca         1 IZ9      -0.107500
     23 HAD1         2.7310     0.3830     3.0170 hn         1 IZ9       0.447800
     24 HAD2         1.2460    -0.4210     2.6300 hn         1 IZ9       0.447800
     25 HAC1         6.1090     0.0300    -0.2690 hn         1 IZ9       0.450800
     26 HAC2         5.6890    -0.0160    -1.9500 hn         1 IZ9       0.450800
     27 HAN          0.7160    -0.0010    -3.1260 hn         1 IZ9       0.310700
     28 HAG         -2.5630    -0.3660    -1.1850 ha         1 IZ9       0.160000
     29 HAF         -1.1870    -0.0180    -3.8570 ha         1 IZ9       0.121000
     30 HAJ         -2.8360    -0.0320    -5.7230 ha         1 IZ9       0.133500
     31 HAK         -4.2690    -0.0330    -1.6720 ha         1 IZ9       0.133500
     32 HAH         -5.1650    -0.0450    -6.5320 ha         1 IZ9       0.134000
     33 HAA1        -8.0660    -0.5470    -4.3480 hc         1 IZ9       0.045367
     34 HAA2        -7.4770    -0.5740    -6.0150 hc         1 IZ9       0.045367
     35 HAA3        -7.7700     0.9710    -5.2060 hc         1 IZ9       0.045367
     36 HAI         -6.5860    -0.0350    -2.5040 ha         1 IZ9       0.134000
@<TRIPOS>BOND
     1     1     2 3
     2     2     3 1
     3     3     4 1
     4     3    13 2
     5     4     5 ar
     6     4    11 ar
     7     5     6 1
     8     5     7 ar
     9     7     8 ar
    10     8     9 1
    11     8    10 ar
    12    10    11 ar
    13    11    12 1
    14    12    13 1
    15    13    14 1
    16    14    15 2
    17    15    16 1
    18    16    17 ar
    19    16    22 ar
    20    17    18 ar
    21    18    19 ar
    22    19    20 1
    23    19    21 ar
    24    21    22 ar
    25     6    23 1
    26     6    24 1
    27     9    25 1
    28     9    26 1
    29    12    27 1
    30    14    28 1
    31    15    29 1
    32    17    30 1
    33    22    31 1
    34    18    32 1
    35    20    33 1
    36    20    34 1
    37    20    35 1
    38    21    36 1
@<TRIPOS>SUBSTRUCTURE
     1 IZ9         1 TEMP              0 ****  ****    0 ROOT
