@<TRIPOS>MOLECULE
IZB
   67    72     1     0     0
SMALL
bcc


@<TRIPOS>ATOM
      1 C1           0.0000     0.0000     0.0000 c3         1 IZB       0.075400
      2 C2           1.5520     0.0000     0.0000 c3         1 IZB      -0.085400
      3 C3           2.0310     0.0000     1.4200 c          1 IZB       0.633500
      4 N4           1.1800     0.3850     2.3830 ns         1 IZB      -0.281300
      5 S5          -0.2910     0.7370     1.6600 s6         1 IZB       0.919600
      6 O6          -0.3060     2.1560     1.6200 o          1 IZB      -0.561300
      7 O7          -1.2210    -0.0180     2.4240 o          1 IZB      -0.561300
      8 O9           3.1630    -0.3410     1.6930 o          1 IZB      -0.634500
      9 C11         -0.5510    -1.4000    -0.0880 ca         1 IZB      -0.084300
     10 C12         -1.4340    -1.7330    -1.0970 ca         1 IZB      -0.077500
     11 C13         -1.9390    -3.0180    -1.1780 ca         1 IZB      -0.080500
     12 C14         -1.5610    -3.9690    -0.2480 ca         1 IZB      -0.081300
     13 C15         -0.6830    -3.6340     0.7650 ca         1 IZB      -0.080500
     14 C16         -0.1740    -2.3500     0.8420 ca         1 IZB      -0.077500
     15 C21         -2.1110    -5.3690    -0.3360 c3         1 IZB       0.022900
     16 C22         -1.1910    -6.2250    -1.2080 c3         1 IZB       0.214200
     17 N45         -1.2060    -5.7160    -2.5820 n7         1 IZB      -0.598100
     18 S1           0.1710    -5.7730    -3.5000 sy         1 IZB       1.044200
     19 O1          -0.1950    -5.2630    -4.7750 o          1 IZB      -0.577300
     20 O2           1.2070    -5.2590    -2.6760 o          1 IZB      -0.577300
     21 C17         -3.1340   -11.8990    -1.7800 ca         1 IZB      -0.087000
     22 C19         -2.7910   -10.7880    -2.5210 ca         1 IZB      -0.088000
     23 C23         -2.3720    -9.6340    -1.8750 ca         1 IZB      -0.272200
     24 C4          -2.3000    -9.6040    -0.4720 ca         1 IZB       0.063400
     25 C5          -2.6540   -10.7420     0.2580 ca         1 IZB      -0.037000
     26 C6          -3.0640   -11.8700    -0.3950 ca         1 IZB      -0.118000
     27 N11         -1.9680    -8.3850    -2.3030 na         1 IZB       0.267700
     28 C25         -1.6730    -7.6530    -1.1960 cc         1 IZB       0.164800
     29 N13         -1.8620    -8.3670    -0.1240 nd         1 IZB      -0.509100
     30 C18         -0.1880   -11.4690    -6.0230 c3         1 IZB       0.188400
     31 O3          -0.1860   -10.0550    -6.1770 os         1 IZB      -0.283900
     32 C24          0.3530    -9.4820    -5.0710 ca         1 IZB       0.074100
     33 C26          1.1700   -10.1490    -4.1720 ca         1 IZB      -0.000400
     34 N5           1.5180   -11.4980    -4.2990 nh         1 IZB      -0.348000
     35 C27          1.2370   -11.9170    -5.6750 c3         1 IZB       0.084800
     36 C7           0.0520    -8.1380    -4.8520 ca         1 IZB      -0.030000
     37 C8           0.5610    -7.4710    -3.7590 ca         1 IZB      -0.173500
     38 C9           1.3800    -8.1360    -2.8650 ca         1 IZB      -0.009000
     39 C10          1.6820    -9.4660    -3.0700 ca         1 IZB      -0.127000
     40 H1          -0.3910     0.6370    -0.7840 h1         1 IZB       0.088700
     41 H2C1         1.9150    -0.8870    -0.5050 hc         1 IZB       0.064200
     42 H2C2         1.9150     0.8870    -0.5050 hc         1 IZB       0.064200
     43 H4           1.3870     0.4520     3.3600 hn         1 IZB       0.263500
     44 H12         -1.7300    -0.9880    -1.8260 ha         1 IZB       0.107000
     45 H13         -2.6290    -3.2790    -1.9710 ha         1 IZB       0.109000
     46 H15         -0.3870    -4.3790     1.4940 ha         1 IZB       0.109000
     47 H16          0.5150    -2.0880     1.6360 ha         1 IZB       0.107000
     48 H211        -3.1010    -5.3410    -0.7750 hc         1 IZB       0.037700
     49 H212        -2.1690    -5.7970     0.6570 hc         1 IZB       0.037700
     50 H22         -0.1810    -6.1820    -0.8180 h1         1 IZB       0.069700
     51 H45         -2.0570    -5.3690    -2.9770 hn         1 IZB       0.352800
     52 H17         -3.4610   -12.8020    -2.2820 ha         1 IZB       0.102000
     53 H19         -2.8480   -10.8170    -3.6030 ha         1 IZB       0.100000
     54 H5          -2.6030   -10.7290     1.3400 ha         1 IZB       0.110000
     55 H6          -3.3370   -12.7500     0.1750 ha         1 IZB       0.105000
     56 H11         -2.0310    -8.0350    -3.2390 hn         1 IZB       0.133700
     57 H181        -0.4820   -11.9260    -6.9610 h1         1 IZB       0.028200
     58 H182        -0.8510   -11.7350    -5.2090 h1         1 IZB       0.028200
     59 H271         1.9350   -11.4280    -6.3430 h1         1 IZB       0.035200
     60 H272         1.2930   -12.9970    -5.7350 h1         1 IZB       0.035200
     61 H7          -0.5850    -7.6110    -5.5520 ha         1 IZB       0.136000
     62 H9           1.8500    -7.5930    -2.0540 ha         1 IZB       0.132000
     63 H10          2.3240    -9.9850    -2.3680 ha         1 IZB       0.128000
     64 H201         3.4360   -10.6840    -4.5280 h1         1 IZB       0.015033
     65 H202         3.2080   -11.6580    -3.0690 h1         1 IZB       0.015033
     66 H203         3.3540   -12.4470    -4.6460 h1         1 IZB       0.015033
     67 C20          2.9740   -11.5770    -4.1240 c3         1 IZB       0.160100
@<TRIPOS>BOND
     1     1     2 1   
     2     1     5 1   
     3     1     9 1   
     4     1    40 1   
     5     2     3 1   
     6     2    41 1   
     7     2    42 1   
     8     3     4 1   
     9     3     8 2   
    10     4     5 1   
    11     4    43 1   
    12     5     6 2   
    13     5     7 2   
    14     9    10 ar  
    15     9    14 ar  
    16    10    11 ar  
    17    10    44 1   
    18    11    12 ar  
    19    11    45 1   
    20    12    13 ar  
    21    12    15 1   
    22    13    14 ar  
    23    13    46 1   
    24    14    47 1   
    25    15    16 1   
    26    15    48 1   
    27    15    49 1   
    28    16    17 1   
    29    16    28 1   
    30    16    50 1   
    31    17    18 1   
    32    17    51 1   
    33    18    19 2   
    34    18    20 2   
    35    18    37 1   
    36    21    22 ar  
    37    21    26 ar  
    38    21    52 1   
    39    22    23 ar  
    40    22    53 1   
    41    23    24 ar  
    42    23    27 1   
    43    24    25 ar  
    44    24    29 1   
    45    25    26 ar  
    46    25    54 1   
    47    26    55 1   
    48    27    28 1   
    49    27    56 1   
    50    28    29 2   
    51    30    31 1   
    52    30    35 1   
    53    30    57 1   
    54    30    58 1   
    55    31    32 1   
    56    32    33 ar  
    57    32    36 ar  
    58    33    34 1   
    59    33    39 ar  
    60    34    35 1   
    61    34    67 1   
    62    35    59 1   
    63    35    60 1   
    64    36    37 ar  
    65    36    61 1   
    66    37    38 ar  
    67    38    39 ar  
    68    38    62 1   
    69    39    63 1   
    70    64    67 1   
    71    65    67 1   
    72    66    67 1   
@<TRIPOS>SUBSTRUCTURE
     1 IZB         1 TEMP              0 ****  ****    0 ROOT
