@<TRIPOS>MOLECULE
IZC
   14    14     1     0     0
SMALL
bcc


@<TRIPOS>ATOM
      1 O1           0.0000     0.0000     0.0000 o          1 IZC      -0.883300
      2 O2           1.9470     0.0000     1.0460 o          1 IZC      -0.883300
      3 N1           5.7910     0.0010    -1.4960 n2         1 IZC      -0.581900
      4 N3           4.1140     0.0000     0.1430 n2         1 IZC      -0.423900
      5 C2           5.5700    -0.0000    -0.0450 c3         1 IZC       0.246000
      6 C4           3.5770     0.0000    -1.0300 ce         1 IZC       0.266000
      7 C5           4.6290    -0.0060    -2.0590 ce         1 IZC       0.324900
      8 C6           2.0960    -0.0000    -1.3060 c3         1 IZC      -0.150700
      9 C7           1.3420     0.0000     0.0000 c          1 IZC       0.967600
     10 H5           4.4770     0.5220    -2.9930 h4         1 IZC      -0.008200
     11 H61          1.8340    -0.8850    -1.8730 hc         1 IZC       0.017200
     12 H62          1.8340     0.8840    -1.8740 hc         1 IZC       0.017200
     13 H21          6.0020    -0.8900     0.3960 h2         1 IZC       0.046700
     14 H22          6.0020     0.8900     0.3970 h2         1 IZC       0.046700
@<TRIPOS>BOND
     1     1     9 1   
     2     2     9 1   
     3     3     5 1   
     4     3     7 2   
     5     4     5 1   
     6     4     6 2   
     7     5    13 1   
     8     5    14 1   
     9     6     7 1   
    10     6     8 1   
    11     7    10 1   
    12     8     9 1   
    13     8    11 1   
    14     8    12 1   
@<TRIPOS>SUBSTRUCTURE
     1 IZC         1 TEMP              0 ****  ****    0 ROOT
