@<TRIPOS>MOLECULE
molecule
   61    63     1     0     0
SMALL
bcc


@<TRIPOS>ATOM
      1 C1           0.0000     0.0000     0.0000 c3         1 IZD      -0.149600
      2 C2           1.5400     0.0000     0.0000 c3         1 IZD      -0.132400
      3 C3           1.9430     0.0000     1.4610 c          1 IZD       0.716500
      4 N4           0.9530    -0.6890     2.2310 ns         1 IZD      -0.655300
      5 S5          -0.4790    -1.0850     1.3450 s6         1 IZD       1.235600
      6 O6          -1.6360    -0.5360     2.0210 o          1 IZD      -0.575800
      7 O7          -0.4050    -2.4700     0.9280 o          1 IZD      -0.575800
      8 O9           2.9580     0.5020     1.9150 o          1 IZD      -0.536500
      9 C11         -0.7280    -0.4200    -1.2480 ca         1 IZD      -0.066300
     10 C12         -2.0210     0.0420    -1.4910 ca         1 IZD      -0.093000
     11 C13         -2.6950    -0.3480    -2.6480 ca         1 IZD      -0.104500
     12 C14         -2.0680    -1.1960    -3.5470 ca         1 IZD      -0.111300
     13 C15         -0.7830    -1.6640    -3.3190 ca         1 IZD      -0.104500
     14 C16         -0.1090    -1.2730    -2.1620 ca         1 IZD      -0.093000
     15 C21         -2.7980    -1.6170    -4.8000 c3         1 IZD      -0.036100
     16 C22         -3.6120    -2.9010    -4.6070 c3         1 IZD       0.044700
     17 C25         -4.6650    -3.0290    -5.6990 c          1 IZD       0.466100
     18 O26         -4.4580    -3.5580    -6.7890 o          1 IZD      -0.386100
     19 N27         -5.8940    -2.5340    -5.3170 nz         1 IZD      -0.695400
     20 N45         -2.7880    -4.0870    -4.6700 ns         1 IZD      -0.592900
     21 C47         -2.7020    -5.0110    -3.6390 c          1 IZD       0.651100
     22 C48         -1.7170    -6.1310    -3.9550 c3         1 IZD       0.058700
     23 O49         -3.3060    -4.9330    -2.5710 o          1 IZD      -0.556100
     24 N51         -1.0400    -6.4630    -2.7270 ns         1 IZD      -0.578900
     25 C4          -2.4530    -7.3350    -4.5560 c3         1 IZD      -0.036100
     26 C5          -1.5290    -8.2730    -5.2950 ca         1 IZD      -0.071300
     27 C30         -1.2990    -8.0730    -6.6470 ca         1 IZD      -0.135000
     28 C31         -0.4470    -8.9410    -7.3300 ca         1 IZD      -0.131000
     29 C6           0.1650    -9.9960    -6.6520 ca         1 IZD      -0.116000
     30 C33         -0.0770   -10.1830    -5.2910 ca         1 IZD      -0.131000
     31 C34         -0.9290    -9.3160    -4.6090 ca         1 IZD      -0.135000
     32 C67          0.0950    -5.8080    -2.2840 c          1 IZD       0.685100
     33 O70          0.6690    -4.8840    -2.8510 o          1 IZD      -0.604100
     34 C71          0.6270    -6.3160    -0.9850 c3         1 IZD      -0.179100
     35 H1          -0.3260     1.0020     0.2520 h1         1 IZD       0.124700
     36 H2C1         1.9130     0.8910    -0.4900 hc         1 IZD       0.100700
     37 H2C2         1.9140    -0.8900    -0.4910 hc         1 IZD       0.100700
     38 H4           1.0780    -0.9220     3.1960 hn         1 IZD       0.355500
     39 H12         -2.5020     0.7040    -0.7810 ha         1 IZD       0.156500
     40 H13         -3.7000     0.0080    -2.8410 ha         1 IZD       0.137000
     41 H15         -0.3070    -2.3270    -4.0320 ha         1 IZD       0.137000
     42 H16          0.8950    -1.6330    -1.9730 ha         1 IZD       0.156500
     43 H211        -2.0730    -1.7790    -5.5880 hc         1 IZD       0.060700
     44 H212        -3.4670    -0.8200    -5.0980 hc         1 IZD       0.060700
     45 H22         -4.1060    -2.8640    -3.6430 h1         1 IZD       0.105700
     46 H271        -6.1730    -2.9610    -4.4560 hn         1 IZD       0.476133
     47 H272        -6.5710    -2.7370    -6.0260 hn         1 IZD       0.476133
     48 H45         -2.2520    -4.2500    -5.5000 hn         1 IZD       0.344500
     49 H48         -0.9900    -5.7690    -4.6720 h1         1 IZD       0.090700
     50 H51         -1.4100    -7.2040    -2.1660 hn         1 IZD       0.333500
     51 H4C1        -2.9390    -7.8810    -3.7570 hc         1 IZD       0.056200
     52 H4C2        -3.2080    -6.9750    -5.2430 hc         1 IZD       0.056200
     53 H30         -1.8900    -7.3500    -7.1960 ha         1 IZD       0.142000
     54 H31         -0.2450    -8.7840    -8.3830 ha         1 IZD       0.139000
     55 H6           0.8310   -10.6660    -7.1820 ha         1 IZD       0.141000
     56 H33          0.3990   -11.0010    -4.7640 ha         1 IZD       0.139000
     57 H34         -0.9850    -9.9350    -3.7220 ha         1 IZD       0.142000
     58 H711        -0.1490    -6.2620    -0.2310 hc         1 IZD       0.072367
     59 H712         0.9450    -7.3450    -1.1030 hc         1 IZD       0.072367
     60 H713         1.4710    -5.7100    -0.6780 hc         1 IZD       0.072367
     61 H273        -5.8330    -1.5410    -5.2040 hn         1 IZD       0.476133
@<TRIPOS>BOND
     1     1     2 1
     2     1     5 1
     3     1     9 1
     4     1    35 1
     5     2     3 1
     6     2    36 1
     7     2    37 1
     8     3     4 1
     9     3     8 2
    10     4     5 1
    11     4    38 1
    12     5     6 2
    13     5     7 2
    14     9    10 ar
    15     9    14 ar
    16    10    11 ar
    17    10    39 1
    18    11    12 ar
    19    11    40 1
    20    12    13 ar
    21    12    15 1
    22    13    14 ar
    23    13    41 1
    24    14    42 1
    25    15    16 1
    26    15    43 1
    27    15    44 1
    28    16    17 1
    29    16    20 1
    30    16    45 1
    31    17    18 2
    32    17    19 1
    33    19    46 1
    34    19    47 1
    35    20    21 1
    36    20    48 1
    37    21    22 1
    38    21    23 2
    39    22    24 1
    40    22    25 1
    41    22    49 1
    42    24    32 1
    43    24    50 1
    44    25    26 1
    45    25    51 1
    46    25    52 1
    47    26    27 ar
    48    26    31 ar
    49    27    28 ar
    50    27    53 1
    51    28    29 ar
    52    28    54 1
    53    29    30 ar
    54    29    55 1
    55    30    31 ar
    56    30    56 1
    57    31    57 1
    58    32    33 2
    59    32    34 1
    60    34    58 1
    61    34    59 1
    62    34    60 1
    63    61    19 1
@<TRIPOS>SUBSTRUCTURE
     1 IZD         1 TEMP              0 ****  ****    0 ROOT
