@<TRIPOS>MOLECULE
IZE
   53    55     1     0     0
SMALL
bcc


@<TRIPOS>ATOM
      1 C1         -0.1880    1.0290    1.2000 c2        1 IZE     -0.834000
      2 C2          0.8250    1.8230    1.5760 c2        1 IZE     -0.030000
      3 C3          1.5380    1.2680    2.7940 c2        1 IZE      0.309000
      4 N4          0.9030    0.0690    3.1720 n         1 IZE     -0.868000
      5 S5         -0.3670   -0.3480    2.1980 s6        1 IZE      2.835000
      6 O6         -1.5810   -0.3470    2.8790 o         1 IZE     -0.925000
      7 O7         -0.0990   -1.5250    1.4810 o         1 IZE     -0.925000
      8 O9          2.5080    1.7670    3.3610 o         1 IZE     -0.241000
      9 C11        -0.6780   -4.6410    1.1240 c2        1 IZE     -0.092000
     10 C12         0.1960   -4.3110   -0.0350 c3        1 IZE     -0.063000
     11 C13        -0.4390   -4.5630   -1.2940 c1        1 IZE     -0.058000
     12 C14        -0.9590   -4.8030   -2.3460 c1        1 IZE     -0.253000
     13 C15        -0.4430   -7.1580    1.1370 c3        1 IZE     -0.147000
     14 C16        -0.9580   -5.8470    1.6210 c2        1 IZE     -0.210000
     15 C21        -1.5570   -5.1330   -3.6010 c3        1 IZE     -0.051000
     16 C22        -1.1800   -6.5930   -3.9750 c3        1 IZE      0.088000
     17 N45        -1.7200   -7.0730   -5.2180 n         1 IZE     -0.362000
     18 C17        -2.6250   -8.4510    1.3940 c2        1 IZE     -0.289000
     19 C19        -1.5560   -8.0160    0.6530 c2        1 IZE      0.162000
     20 C23        -1.4880   -8.5200   -0.7720 c3        1 IZE     -0.103000
     21 C4         -2.9120   -8.6170   -1.3850 c2        1 IZE      0.109000
     22 C5         -4.0050   -9.2070   -0.5780 c3        1 IZE     -0.200000
     23 C6         -3.7950   -9.0380    0.8500 c1        1 IZE      0.031000
     24 N11        -0.7250   -7.7470   -1.7690 n2        1 IZE     -0.082000
     25 C25        -1.5310   -7.4570   -2.7640 c2        1 IZE      0.044000
     26 N13        -2.8900   -7.9760   -2.5480 n3        1 IZE     -0.140000
     27 F1         -3.3460   -9.3650    3.5310 f         1 IZE     -0.143667
     28 F3         -1.5060   -8.2400    3.5730 f         1 IZE     -0.143667
     29 F2         -3.3980   -7.1950    3.3360 f         1 IZE     -0.143667
     30 C7         -3.0310   -6.9480   -5.6070 c2        1 IZE      0.268000
     31 C8         -3.3260   -7.2480   -7.1330 c3        1 IZE      0.419000
     32 O1         -3.9710   -6.6800   -4.8430 o         1 IZE     -0.329000
     33 F4         -3.0500   -8.5470   -7.4610 f         1 IZE     -0.129667
     34 F6         -2.5700   -6.4800   -7.9740 f         1 IZE     -0.129667
     35 F5         -4.6280   -7.0290   -7.4630 f         1 IZE     -0.129667
     36 H1         -1.1000   -3.7420    1.6200 ha        1 IZE      0.168000
     37 H2C1       -0.8470    1.2350    0.3500 h4        1 IZE      0.206000
     38 H2C2        1.1760    2.7650    1.1420 ha        1 IZE      0.193000
     39 H4          1.2380   -0.4030    3.9750 hn        1 IZE      0.280000
     40 H12         0.4740   -3.2130    0.0310 hc        1 IZE      0.142500
     41 H13         1.1580   -4.8990    0.0170 hc        1 IZE      0.142500
     42 H15         0.3480   -7.0090    0.3540 hc        1 IZE      0.148000
     43 H16        -1.6010   -5.9250    2.5190 ha        1 IZE      0.149000
     44 H211        0.0600   -7.6820    2.0070 hc        1 IZE      0.148000
     45 H212       -2.6760   -5.0190   -3.5550 hc        1 IZE      0.135500
     46 H22        -1.1760   -4.4470   -4.4100 hc        1 IZE      0.135500
     47 H45        -0.0460   -6.6380   -4.0760 h1        1 IZE      0.171000
     48 H19        -1.0140   -9.5560   -0.7250 h1        1 IZE      0.223000
     49 H5         -4.0840  -10.3240   -0.7790 hc        1 IZE      0.209500
     50 H6         -5.0180   -8.7770   -0.8470 hc        1 IZE      0.209500
     51 HA         -3.6610   -7.7970   -3.1720 hn        1 IZE      0.328000
     52 H452       -1.0500   -7.3010   -5.9240 hn        1 IZE      0.270000
     53 C28        -2.7160   -8.3110    2.9280 c3        1 IZE      0.499000
@<TRIPOS>BOND
     1    1    2 1
     2    1    5 1
     3    1   37 1
     4    2    3 1
     5    2   38 1
     6    3    4 1
     7    3    8 1
     8    4    5 1
     9    4   39 1
    10    5    6 1
    11    5    7 1
    12    9   10 1
    13    9   14 1
    14    9   36 1
    15   10   11 1
    16   10   40 1
    17   10   41 1
    18   11   12 1
    19   12   15 1
    20   13   14 1
    21   13   19 1
    22   13   42 1
    23   13   44 1
    24   14   43 1
    25   15   16 1
    26   15   45 1
    27   15   46 1
    28   16   17 1
    29   16   25 1
    30   16   47 1
    31   17   30 1
    32   17   52 1
    33   18   19 1
    34   18   23 1
    35   18   53 1
    36   19   20 1
    37   20   21 1
    38   20   24 1
    39   20   48 1
    40   21   22 1
    41   21   26 1
    42   22   23 1
    43   22   49 1
    44   22   50 1
    45   24   25 1
    46   25   26 1
    47   26   51 1
    48   27   53 1
    49   28   53 1
    50   29   53 1
    51   30   31 1
    52   30   32 1
    53   31   33 1
    54   31   34 1
    55   31   35 1
@<TRIPOS>SUBSTRUCTURE
     1 IZE         1 TEMP              0 ****  ****    0 ROOT
