@<TRIPOS>MOLECULE
IZF
   81    84     1     0     0
SMALL
bcc


@<TRIPOS>ATOM
      1 C1           0.0000     0.0000     0.0000 c3         1 IZF       0.065400
      2 C2           1.5520     0.0000     0.0000 c3         1 IZF      -0.090400
      3 C3           2.0320     0.0000     1.4200 c          1 IZF       0.635500
      4 N4           1.1800     0.3850     2.3830 ns         1 IZF      -0.271300
      5 S5          -0.2910     0.7370     1.6600 s6         1 IZF       0.916600
      6 O6          -0.3060     2.1570     1.6200 o          1 IZF      -0.553800
      7 O7          -1.2210    -0.0190     2.4250 o          1 IZF      -0.553800
      8 O9           3.1630    -0.3410     1.6930 o          1 IZF      -0.643500
      9 C11         -0.5510    -1.4010    -0.0870 ca         1 IZF      -0.060300
     10 C12          0.1960    -2.4680     0.3750 ca         1 IZF      -0.068000
     11 C13         -0.3090    -3.7520     0.2940 ca         1 IZF      -0.021000
     12 C14         -1.5620    -3.9690    -0.2470 ca         1 IZF      -0.074300
     13 C15         -2.3090    -2.9030    -0.7130 ca         1 IZF      -0.084000
     14 C16         -1.8050    -1.6170    -0.6280 ca         1 IZF      -0.008600
     15 C21         -2.1130    -5.3690    -0.3340 c3         1 IZF       0.019900
     16 C22         -2.8890    -5.6930     0.9450 c3         1 IZF       0.137500
     17 N45         -1.9690    -5.7080     2.0840 n7         1 IZF      -0.569100
     18 S1          -1.7800    -4.3510     3.0140 sy         1 IZF       1.030200
     19 O1          -1.5940    -3.2790     2.0990 o          1 IZF      -0.577300
     20 O2          -0.8780    -4.7150     4.0490 o          1 IZF      -0.577300
     21 C23         -5.3280    -8.4830    -0.0160 c3         1 IZF       0.048000
     22 C25         -3.5420    -7.0440     0.8080 c          1 IZF       0.558100
     23 C24         -4.7940    -4.3500     5.6700 ca         1 IZF      -0.134000
     24 C26         -5.7380    -3.5470     5.0580 ca         1 IZF      -0.046000
     25 C7          -3.5850    -4.5960     5.0460 ca         1 IZF       0.006500
     26 C8          -3.3200    -4.0380     3.8100 ca         1 IZF      -0.161500
     27 C9          -4.2610    -3.2300     3.2000 ca         1 IZF       0.006500
     28 C10         -5.4720    -2.9890     3.8220 ca         1 IZF      -0.134000
     29 C27         -7.2720    -9.7210    -0.9790 c3         1 IZF      -0.017400
     30 C18         -6.6100    -8.3490    -0.8400 c3         1 IZF      -0.040400
     31 O3          -3.0320    -8.0180     1.3200 o          1 IZF      -0.639100
     32 Cl1         -2.7440    -0.2770    -1.2080 cl         1 IZF      -0.043400
     33 C4          -8.5540    -9.5870    -1.8030 c3         1 IZF      -0.039400
     34 C5          -9.2170   -10.9590    -1.9420 c3         1 IZF       0.177400
     35 C32        -10.9540   -12.0750    -2.8000 ca         1 IZF       0.205100
     36 C33        -10.3270   -13.1520    -2.1950 ca         1 IZF      -0.263000
     37 C34        -10.8750   -14.4170    -2.2850 ca         1 IZF       0.001000
     38 C35        -12.0570   -14.6230    -2.9720 ca         1 IZF      -0.232000
     39 C36        -12.7050   -13.5600    -3.5790 ca         1 IZF       0.221100
     40 C37        -12.1570   -12.2710    -3.4960 ca         1 IZF      -0.198600
     41 C38        -12.8360   -11.1350    -4.1370 c          1 IZF       0.750700
     42 O11        -13.6610   -10.4920    -3.5170 o          1 IZF      -0.580000
     43 O4         -12.5440   -10.8060    -5.4110 os         1 IZF      -0.415900
     44 C39        -13.2140    -9.6850    -6.0440 c3         1 IZF       0.276700
     45 O14        -13.8650   -13.7650    -4.2540 oh         1 IZF      -0.481100
     46 O5         -10.4140   -10.8350    -2.7120 os         1 IZF      -0.272900
     47 H1          -0.3910     0.6370    -0.7850 h1         1 IZF       0.096700
     48 H2C1         1.9140     0.8870    -0.5050 hc         1 IZF       0.061700
     49 H2C2         1.9150    -0.8870    -0.5050 hc         1 IZF       0.061700
     50 H4           1.3860     0.4510     3.3600 hn         1 IZF       0.262500
     51 H12          1.1780    -2.2980     0.7990 ha         1 IZF       0.113000
     52 H13          0.2770    -4.5880     0.6580 ha         1 IZF       0.102000
     53 H15         -3.2910    -3.0730    -1.1370 ha         1 IZF       0.106000
     54 H211        -1.2970    -6.0720    -0.4480 hc         1 IZF       0.026700
     55 H212        -2.7760    -5.4440    -1.1870 hc         1 IZF       0.026700
     56 H22         -3.6500    -4.9390     1.1050 h1         1 IZF       0.037700
     57 H45         -1.4750    -6.5470     2.3170 hn         1 IZF       0.373800
     58 H231        -5.5690    -8.8690     0.9680 h1         1 IZF       0.029200
     59 H232        -4.6480    -9.1650    -0.5130 h1         1 IZF       0.029200
     60 H11         -5.1300    -6.3600    -0.2780 hn         1 IZF       0.175500
     61 H24         -5.0020    -4.7880     6.6390 ha         1 IZF       0.108500
     62 H26         -6.6860    -3.3560     5.5460 ha         1 IZF       0.101000
     63 H7          -2.8450    -5.2250     5.5260 ha         1 IZF       0.124000
     64 H9          -4.0530    -2.7920     2.2310 ha         1 IZF       0.124000
     65 H10         -6.2110    -2.3570     3.3430 ha         1 IZF       0.108500
     66 H271        -6.5920   -10.4020    -1.4760 hc         1 IZF       0.018700
     67 H272        -7.5140   -10.1070     0.0050 hc         1 IZF       0.018700
     68 H181        -6.3680    -7.9640    -1.8230 hc         1 IZF       0.018700
     69 H182        -7.2900    -7.6690    -0.3420 hc         1 IZF       0.018700
     70 H4C1        -8.3130    -9.2010    -2.7860 hc         1 IZF       0.026700
     71 H4C2        -9.2340    -8.9070    -1.3040 hc         1 IZF       0.026700
     72 H5C1        -9.4580   -11.3450    -0.9590 h1         1 IZF       0.014200
     73 H5C2        -8.5370   -11.6390    -2.4400 h1         1 IZF       0.014200
     74 H33         -9.4000   -13.0030    -1.6560 ha         1 IZF       0.138000
     75 H34        -10.3770   -15.2540    -1.8110 ha         1 IZF       0.101000
     76 H35        -12.4780   -15.6200    -3.0360 ha         1 IZF       0.117000
     77 H391       -12.8330    -9.5570    -7.0500 h1         1 IZF      -0.001633
     78 H392       -14.2800    -9.8760    -6.0820 h1         1 IZF      -0.001633
     79 H393       -13.0300    -8.7840    -5.4710 h1         1 IZF      -0.001633
     80 H14        -14.4060   -14.3690    -3.7720 ho         1 IZF       0.412000
     81 N11         -4.6920    -7.1690     0.1170 ns         1 IZF      -0.192900
@<TRIPOS>BOND
     1     1     2 1   
     2     1     5 1   
     3     1     9 1   
     4     1    47 1   
     5     2     3 1   
     6     2    48 1   
     7     2    49 1   
     8     3     4 1   
     9     3     8 2   
    10     4     5 1   
    11     4    50 1   
    12     5     6 2   
    13     5     7 2   
    14     9    10 ar  
    15     9    14 ar  
    16    10    11 ar  
    17    10    51 1   
    18    11    12 ar  
    19    11    52 1   
    20    12    13 ar  
    21    12    15 1   
    22    13    14 ar  
    23    13    53 1   
    24    14    32 1   
    25    15    16 1   
    26    15    54 1   
    27    15    55 1   
    28    16    17 1   
    29    16    22 1   
    30    16    56 1   
    31    17    18 1   
    32    17    57 1   
    33    18    19 2   
    34    18    20 2   
    35    18    26 1   
    36    21    30 1   
    37    21    58 1   
    38    21    59 1   
    39    21    81 1   
    40    22    31 2   
    41    22    81 1   
    42    23    24 ar  
    43    23    25 ar  
    44    23    61 1   
    45    24    28 ar  
    46    24    62 1   
    47    25    26 ar  
    48    25    63 1   
    49    26    27 ar  
    50    27    28 ar  
    51    27    64 1   
    52    28    65 1   
    53    29    30 1   
    54    29    33 1   
    55    29    66 1   
    56    29    67 1   
    57    30    68 1   
    58    30    69 1   
    59    33    34 1   
    60    33    70 1   
    61    33    71 1   
    62    34    46 1   
    63    34    72 1   
    64    34    73 1   
    65    35    36 ar  
    66    35    40 ar  
    67    35    46 1   
    68    36    37 ar  
    69    36    74 1   
    70    37    38 ar  
    71    37    75 1   
    72    38    39 ar  
    73    38    76 1   
    74    39    40 ar  
    75    39    45 1   
    76    40    41 1   
    77    41    42 2   
    78    41    43 1   
    79    43    44 1   
    80    44    77 1   
    81    44    78 1   
    82    44    79 1   
    83    45    80 1   
    84    60    81 1   
@<TRIPOS>SUBSTRUCTURE
     1 IZF         1 TEMP              0 ****  ****    0 ROOT
