@<TRIPOS>MOLECULE
molecule
   43    45     1     0     0
SMALL
bcc


@<TRIPOS>ATOM
      1 C1           0.0000     0.0000     0.0000 c3         1 IZG       0.081300
      2 N2           1.4650     0.0000     0.0000 n          1 IZG      -0.311000
      3 C3           2.1330     0.0000     1.1930 cc         1 IZG       0.352200
      4 N4           1.4730     0.0020     2.3590 nc         1 IZG      -0.692300
      5 C5           2.1090     0.0020     3.4970 cd         1 IZG       0.550800
      6 N6           3.4610     0.0010     3.5750 n          1 IZG      -0.364300
      7 C7           4.1150     0.0020     4.8860 c3         1 IZG       0.086000
      8 C8           4.3420    -1.4410     5.3430 c3         1 IZG       0.133100
      9 O10          5.2660    -2.0800     4.4590 oh         1 IZG      -0.576800
     10 C11          4.9110    -1.4430     6.7640 c3         1 IZG       0.114400
     11 O12          5.0140    -2.7880     7.2340 oh         1 IZG      -0.609800
     12 C13          4.2100     0.0000     2.4490 c          1 IZG       0.713700
     13 O14          5.4270    -0.0000     2.5040 o          1 IZG      -0.585500
     14 C15          3.5350     0.0000     1.2030 cd         1 IZG      -0.323200
     15 C16          4.2600    -0.0020    -0.0650 cd         1 IZG       0.238000
     16 N17          5.6420    -0.0030    -0.0970 nu         1 IZG      -0.667400
     17 C18          6.3540     1.0950     0.3990 ca         1 IZG       0.212600
     18 C19          5.6780     2.2380     0.8000 ca         1 IZG      -0.175000
     19 C20          6.3830     3.3210     1.2890 ca         1 IZG      -0.072000
     20 C21          7.7620     3.2670     1.3780 ca         1 IZG       0.027900
     21 I22          8.8260     4.9130     2.1210 i          1 IZG      -0.173900
     22 C23          8.4410     2.1300     0.9790 ca         1 IZG      -0.095000
     23 C24          7.7410     1.0410     0.4950 ca         1 IZG       0.076900
     24 F25          8.4030    -0.0720     0.1090 f          1 IZG      -0.140900
     25 C26          3.5190    -0.0030    -1.2370 cc         1 IZG      -0.016700
     26 F27          4.1440    -0.0050    -2.4350 f          1 IZG      -0.129500
     27 C28          2.1220    -0.0070    -1.1720 c          1 IZG       0.688700
     28 O29          1.4800    -0.0120    -2.2110 o          1 IZG      -0.620500
     29 H1          -0.3610     0.0440    -1.0200 h1         1 IZG       0.066367
     30 H1A         -0.3610    -0.9060     0.4720 h1         1 IZG       0.066367
     31 H1B         -0.3610     0.8620     0.5480 h1         1 IZG       0.066367
     32 H5           1.5350     0.0040     4.4160 h5         1 IZG       0.064800
     33 H7           5.0680     0.5120     4.8140 h1         1 IZG       0.083700
     34 H7A          3.4860     0.5130     5.6040 h1         1 IZG       0.083700
     35 H8           3.4010    -1.9760     5.3300 h1         1 IZG       0.040700
     36 HO10         5.0850    -3.0050     4.4310 ho         1 IZG       0.416000
     37 H11          4.2530    -0.8820     7.4170 h1         1 IZG       0.033200
     38 H11A         5.8930    -0.9850     6.7610 h1         1 IZG       0.033200
     39 HO12         5.2570    -2.7840     8.1450 ho         1 IZG       0.412000
     40 HN17         6.1330    -0.7760    -0.5010 hn         1 IZG       0.473800
     41 H19          4.5970     2.2820     0.7310 ha         1 IZG       0.143000
     42 H20          5.8550     4.2140     1.6030 ha         1 IZG       0.141000
     43 H23          9.5210     2.0910     1.0530 ha         1 IZG       0.155000
@<TRIPOS>BOND
     1     1     2 1
     2     1    29 1
     3     1    30 1
     4     1    31 1
     5     2     3 1
     6     2    27 1
     7     4     3 1
     8     3    14 2
     9     4     5 2
    10     5     6 1
    11     5    32 1
    12     6     7 1
    13     6    12 1
    14     7     8 1
    15     7    33 1
    16     7    34 1
    17    10     8 1
    18     8     9 1
    19     8    35 1
    20     9    36 1
    21    10    11 1
    22    10    37 1
    23    10    38 1
    24    11    39 1
    25    14    12 1
    26    12    13 2
    27    14    15 1
    28    25    15 2
    29    15    16 1
    30    16    17 1
    31    16    40 1
    32    18    17 ar
    33    17    23 ar
    34    18    19 ar
    35    18    41 1
    36    19    20 ar
    37    19    42 1
    38    20    21 1
    39    20    22 ar
    40    23    22 ar
    41    22    43 1
    42    23    24 1
    43    27    25 1
    44    25    26 1
    45    28    27 2
@<TRIPOS>SUBSTRUCTURE
     1 IZG         1 TEMP              0 ****  ****    0 ROOT
