@<TRIPOS>MOLECULE
IZN
   41    44     1     0     0
SMALL
bcc


@<TRIPOS>ATOM
      1 N1           0.0000     0.0000     0.0000 n3         1 IZN      -0.507600
      2 C1           1.4640     0.0000     0.0000 c3         1 IZN       0.151800
      3 C2           1.9430     0.0000     1.4490 c3         1 IZN      -0.014200
      4 C3          -3.0370     1.5910     0.7140 c2         1 IZN      -0.113200
      5 C4          -0.5320     1.2600     0.5310 c3         1 IZN       0.224600
      6 C5          -0.4900     2.3840    -0.4880 c3         1 IZN      -0.029400
      7 C6          -1.8380     2.5900    -1.1730 c3         1 IZN       0.184100
      8 C7          -2.9140     2.8580    -0.1080 c3         1 IZN      -0.015200
      9 C8          -1.9540     0.9050     0.9240 c2         1 IZN      -0.130400
     10 C9          -1.8230    -0.4840     1.5180 c3         1 IZN       0.021800
     11 C10         -0.5390    -1.0610     0.8830 c3         1 IZN       0.127800
     12 C11          0.1940     1.6970     1.7880 c2         1 IZN      -0.122400
     13 C12          1.2880     1.1370     2.2080 c2         1 IZN      -0.186400
     14 C13          1.9850     1.5510     3.4850 c3         1 IZN       0.297600
     15 C14          0.2000     3.0270     3.8770 c          1 IZN       0.795600
     16 C15         -0.4390     2.8650     2.5210 c3         1 IZN      -0.084200
     17 O1          -0.4480     3.2900     4.8620 o          1 IZN      -0.593500
     18 O2           1.5430     2.8590     3.9250 os         1 IZN      -0.429900
     19 O3          -2.1820     1.4170    -1.9130 os         1 IZN      -0.385600
     20 C16         -2.9810     1.6720    -3.0690 c3         1 IZN       0.242700
     21 H11C         1.8280    -0.8870    -0.5030 h1         1 IZN       0.029200
     22 H12C         1.8280     0.8870    -0.5040 h1         1 IZN       0.029200
     23 H101         0.1810    -1.3020     1.6550 h1         1 IZN       0.023700
     24 H102        -0.7770    -1.9430     0.3000 h1         1 IZN       0.023700
     25 H21C         3.0180     0.1260     1.4720 hc         1 IZN       0.033200
     26 H22C         1.6760    -0.9410     1.9150 hc         1 IZN       0.033200
     27 H3          -3.9080     1.4320     1.3380 ha         1 IZN       0.111000
     28 H71C        -3.8600     3.0810    -0.5870 hc         1 IZN       0.024200
     29 H72C        -2.6090     3.6820     0.5260 hc         1 IZN       0.024200
     30 H51C        -0.2090     3.3020     0.0140 hc         1 IZN       0.031700
     31 H52C         0.2520     2.1470    -1.2410 hc         1 IZN       0.031700
     32 H6          -1.7750     3.4400    -1.8420 h1         1 IZN       0.006700
     33 H91C        -1.7160    -0.4240     2.5940 hc         1 IZN       0.023200
     34 H92C        -2.6800    -1.0900     1.2510 hc         1 IZN       0.023200
     35 H15         -0.2930     3.7710     1.9460 hc         1 IZN       0.057700
     36 H151        -1.4990     2.6780     2.6450 hc         1 IZN       0.057700
     37 H13          1.7650     0.8250     4.2590 h1         1 IZN       0.020200
     38 H131         3.0540     1.5800     3.3120 h1         1 IZN       0.020200
     39 H161        -3.1020     0.7550    -3.6340 h1         1 IZN      -0.013633
     40 H162        -3.9540     2.0380    -2.7630 h1         1 IZN      -0.013633
     41 H163        -2.4940     2.4160    -3.6880 h1         1 IZN      -0.013633
@<TRIPOS>BOND
     1     1     2 1   
     2     1     5 1   
     3     1    11 1   
     4     2     3 1   
     5     2    21 1   
     6     2    22 1   
     7     3    13 1   
     8     3    25 1   
     9     3    26 1   
    10     4     8 1   
    11     4     9 2   
    12     4    27 1   
    13     5     6 1   
    14     5     9 1   
    15     5    12 1   
    16     6     7 1   
    17     6    30 1   
    18     6    31 1   
    19     7     8 1   
    20     7    19 1   
    21     7    32 1   
    22     8    28 1   
    23     8    29 1   
    24     9    10 1   
    25    10    11 1   
    26    10    33 1   
    27    10    34 1   
    28    11    23 1   
    29    11    24 1   
    30    12    13 2   
    31    12    16 1   
    32    13    14 1   
    33    14    18 1   
    34    14    37 1   
    35    14    38 1   
    36    15    16 1   
    37    15    17 2   
    38    15    18 1   
    39    16    35 1   
    40    16    36 1   
    41    19    20 1   
    42    20    39 1   
    43    20    40 1   
    44    20    41 1   
@<TRIPOS>SUBSTRUCTURE
     1 IZN         1 TEMP              0 ****  ****    0 ROOT
