@<TRIPOS>MOLECULE
IZP
   32    32     1     0     0
SMALL
bcc


@<TRIPOS>ATOM
      1 C1         -0.1250    0.1790    0.3430 c         1 IZP      0.922600
      2 O1         -0.8730   -0.6720   -0.2100 o         1 IZP     -0.837300
      3 C2          3.5690    4.4820   -2.9370 c3        1 IZP     -0.019100
      4 O2         -0.5310    1.1080    1.0970 o         1 IZP     -0.837300
      5 C3          4.7320    5.1640   -2.2220 c3        1 IZP     -0.067700
      6 C4          5.9710    4.2950   -2.2550 c3        1 IZP     -0.088100
      7 C5          5.0150    6.5130   -2.8480 c3        1 IZP     -0.088100
      8 C6          1.4090    0.0390    0.0950 c3        1 IZP     -0.167400
      9 C7          2.1110   -0.0740    1.4310 c3        1 IZP     -0.061100
     10 C8          1.9530    1.1800   -0.6940 ca        1 IZP     -0.012300
     11 C9          1.6370    2.5040   -0.3500 ca        1 IZP     -0.134000
     12 C10         2.1640    3.5670   -1.0740 ca        1 IZP     -0.140000
     13 C11         3.0180    3.3380   -2.1620 ca        1 IZP     -0.120300
     14 C12         3.3250    2.0210   -2.5140 ca        1 IZP     -0.140000
     15 C13         2.7970    0.9540   -1.7890 ca        1 IZP     -0.134000
     16 H2          3.9130    4.1350   -3.9470 hc        1 IZP      0.035200
     17 H2A         2.7540    5.2380   -3.1030 hc        1 IZP      0.035200
     18 H3          4.4340    5.3220   -1.1460 hc        1 IZP      0.055700
     19 H4          6.7740    4.7370   -1.6170 hc        1 IZP      0.028367
     20 H4A         5.7280    3.2730   -1.8750 hc        1 IZP      0.028367
     21 H4B         6.3590    4.2020   -3.2980 hc        1 IZP      0.028367
     22 H5          5.8810    7.0020   -2.3410 hc        1 IZP      0.028367
     23 H5A         5.2580    6.4000   -3.9320 hc        1 IZP      0.028367
     24 H5B         4.1260    7.1820   -2.7540 hc        1 IZP      0.028367
     25 H6          1.5630   -0.9140   -0.4830 hc        1 IZP      0.044700
     26 H7          1.8770    0.8220    2.0560 hc        1 IZP      0.020033
     27 H7A         3.2180   -0.1510    1.3020 hc        1 IZP      0.020033
     28 H7B         1.7500   -0.9840    1.9680 hc        1 IZP      0.020033
     29 H9          0.9330    2.6680    0.4880 ha        1 IZP      0.152500
     30 H10         1.9050    4.5990   -0.7980 ha        1 IZP      0.109000
     31 H12         3.9850    1.8250   -3.3710 ha        1 IZP      0.109000
     32 H13         3.0390   -0.0770   -2.0850 ha        1 IZP      0.152500
@<TRIPOS>BOND
     1    1    2 1   
     2    1    4 1   
     3    1    8 1   
     4    3    5 1   
     5    3   13 1   
     6    3   16 1   
     7    3   17 1   
     8    5    6 1   
     9    5    7 1   
    10    5   18 1   
    11    6   19 1   
    12    6   20 1   
    13    6   21 1   
    14    7   22 1   
    15    7   23 1   
    16    7   24 1   
    17    8    9 1   
    18    8   10 1   
    19    8   25 1   
    20    9   26 1   
    21    9   27 1   
    22    9   28 1   
    23   10   11 ar  
    24   10   15 ar  
    25   11   12 ar  
    26   11   29 1   
    27   12   13 ar  
    28   12   30 1   
    29   13   14 ar  
    30   14   15 ar  
    31   14   31 1   
    32   15   32 1   
@<TRIPOS>SUBSTRUCTURE
     1 IZP         1 TEMP              0 ****  ****    0 ROOT
