@<TRIPOS>MOLECULE
molecule
   32    32     1     0     0
SMALL
bcc


@<TRIPOS>ATOM
      1 C1           0.0000     0.0000     0.0000 c          1 IZP       0.895600
      2 O1          -0.6710    -1.0070     0.5810 o          1 IZP      -0.843300
      3 C2           3.4340     4.7180    -2.7240 c3         1 IZP      -0.022100
      4 O2          -0.6040     0.9090    -0.5190 o          1 IZP      -0.843300
      5 C3           4.7850     5.1310    -2.1360 c3         1 IZP      -0.072700
      6 C4           5.8210     4.0440    -2.4270 c3         1 IZP      -0.087100
      7 C5           5.2350     6.4490    -2.7700 c3         1 IZP      -0.087100
      8 C6           1.5070     0.0000     0.0000 c3         1 IZP      -0.143400
      9 C7           2.0160     0.0000     1.4430 c3         1 IZP      -0.059100
     10 C8           2.0090     1.2300    -0.7100 ca         1 IZP      -0.014300
     11 C9           1.6800     2.4860    -0.2340 ca         1 IZP      -0.111500
     12 C10          2.1420     3.6140    -0.8860 ca         1 IZP      -0.138000
     13 C11          2.9320     3.4870    -2.0130 ca         1 IZP      -0.117300
     14 C12          3.2610     2.2320    -2.4890 ca         1 IZP      -0.138000
     15 C13          2.8040     1.1040    -1.8340 ca         1 IZP      -0.111500
     16 H2           3.5510     4.5030    -3.7800 hc         1 IZP       0.038200
     17 H2A          2.7230     5.5250    -2.5970 hc         1 IZP       0.038200
     18 H3           4.6880     5.2600    -1.0640 hc         1 IZP       0.053700
     19 H4           5.6900     3.6810    -3.4390 hc         1 IZP       0.028867
     20 H4A          5.6920     3.2250    -1.7300 hc         1 IZP       0.028867
     21 H4B          6.8170     4.4570    -2.3180 hc         1 IZP       0.028867
     22 H5           4.4770     7.2060    -2.6060 hc         1 IZP       0.028867
     23 H5A          6.1670     6.7670    -2.3180 hc         1 IZP       0.028867
     24 H5B          5.3800     6.3070    -3.8340 hc         1 IZP       0.028867
     25 H6           1.8690    -0.8850    -0.5110 hc         1 IZP       0.045700
     26 H7           1.4460     0.7110     2.0270 hc         1 IZP       0.021367
     27 H7A          1.9010    -0.9900     1.8670 hc         1 IZP       0.021367
     28 H7B          3.0630     0.2790     1.4570 hc         1 IZP       0.021367
     29 H9           1.0610     2.5850     0.6490 ha         1 IZP       0.131000
     30 H10          1.8840     4.5980    -0.5130 ha         1 IZP       0.108000
     31 H12          3.8840     2.1320    -3.3700 ha         1 IZP       0.108000
     32 H13          3.0620     0.1200    -2.2070 ha         1 IZP       0.131000
@<TRIPOS>BOND
     1     4     1 1
     2     1     8 1
     3     1     2 1
     4    13     3 1
     5     3     5 1
     6     3    16 1
     7     3    17 1
     8     5     6 1
     9     5     7 1
    10     5    18 1
    11     6    19 1
    12     6    20 1
    13     6    21 1
    14     7    22 1
    15     7    23 1
    16     7    24 1
    17     9     8 1
    18     8    10 1
    19     8    25 1
    20     9    26 1
    21     9    27 1
    22     9    28 1
    23    10    15 ar
    24    10    11 ar
    25    11    12 ar
    26    11    29 1
    27    12    13 ar
    28    12    30 1
    29    14    13 ar
    30    15    14 ar
    31    14    31 1
    32    15    32 1
@<TRIPOS>SUBSTRUCTURE
     1 IZP         1 TEMP              0 ****  ****    0 ROOT
