@<TRIPOS>MOLECULE
IZX
   53    57     1     0     0
SMALL
bcc


@<TRIPOS>ATOM
      1 C1          0.0130   -0.0510    0.3910 ca        1 IZX     -0.148800
      2 C2          0.9750    0.9050   -0.0520 ca        1 IZX      0.014900
      3 C3          0.0480   -0.5210    1.7250 ca        1 IZX      0.169100
      4 C4          2.0400    1.2550    0.7800 ca        1 IZX     -0.112000
      5 C5          1.1030   -0.1540    2.5510 ca        1 IZX     -0.137000
      6 C6          2.1040    0.7050    2.0590 ca        1 IZX     -0.024000
      7 C7         -0.9650   -0.3350   -0.5970 cc        1 IZX      0.069800
      8 C8         -0.8490    0.5170   -1.6910 cd        1 IZX     -0.386600
      9 S9          0.5490    1.4860   -1.5850 ss        1 IZX      0.042500
     10 C10        -1.9400    0.5720   -2.6730 c3        1 IZX      0.478900
     11 N11        -3.0290    1.4990   -2.1490 n4        1 IZX     -0.894100
     12 N12        -1.4160    0.9490   -4.0500 n4        1 IZX     -0.894100
     13 O13        -0.9710   -1.3780    2.1150 os        1 IZX     -0.315900
     14 C14        -1.8900   -0.8150    3.0720 c3        1 IZX      0.185100
     15 C15        -2.6220   -1.9450    3.7270 ca        1 IZX     -0.147300
     16 C16        -2.7850   -3.1780    3.0880 ca        1 IZX     -0.094500
     17 C17        -3.1280   -1.7500    5.0190 ca        1 IZX     -0.094500
     18 C18        -3.4550   -4.2130    3.7400 ca        1 IZX     -0.122000
     19 C19        -3.8010   -2.7870    5.6610 ca        1 IZX     -0.122000
     20 C20        -3.9640   -4.0180    5.0240 ca        1 IZX     -0.085000
     21 C21        -2.8600    0.1090    2.3770 cc        1 IZX      0.534700
     22 O22        -2.9670    0.0450    0.9570 os        1 IZX     -0.192100
     23 N23        -3.8380    0.9600    0.5570 nc        1 IZX     -0.583300
     24 N24        -3.6870    1.0400    2.8400 nd        1 IZX     -0.653000
     25 C25        -4.3200    1.5760    1.6750 cd        1 IZX      0.731500
     26 C26        -5.3330    2.6210    1.7240 ca        1 IZX     -0.200500
     27 C27        -6.3040    2.7090    0.7120 ca        1 IZX     -0.080500
     28 C28        -5.3630    3.5190    2.8020 ca        1 IZX     -0.080500
     29 C29        -7.2850    3.6930    0.7760 ca        1 IZX     -0.130000
     30 C30        -6.3470    4.5060    2.8520 ca        1 IZX     -0.130000
     31 C31        -7.3070    4.5950    1.8440 ca        1 IZX     -0.068000
     32 H4          2.8160    1.9590    0.4400 ha        1 IZX      0.176000
     33 H5          1.1610   -0.5340    3.5850 ha        1 IZX      0.186000
     34 H6          2.9540    0.9640    2.7170 ha        1 IZX      0.182000
     35 H7         -1.7240   -1.1200   -0.4600 ha        1 IZX      0.198000
     36 HN1C       -2.6890    2.4570   -2.0270 hn        1 IZX      0.490300
     37 HN12       -0.7060    0.2360   -4.2980 hn        1 IZX      0.490300
     38 HN1A       -2.1540    0.9440   -4.7630 hn        1 IZX      0.490300
     39 H14        -1.3240   -0.2050    3.8370 h1        1 IZX      0.107700
     40 H16        -2.3710   -3.3360    2.0810 ha        1 IZX      0.140000
     41 H17        -3.0000   -0.7810    5.5270 ha        1 IZX      0.140000
     42 H18        -3.5760   -5.1870    3.2400 ha        1 IZX      0.155000
     43 H19        -4.2010   -2.6340    6.6760 ha        1 IZX      0.155000
     44 H20        -4.4920   -4.8380    5.5380 ha        1 IZX      0.158000
     45 H27        -6.3180    1.9810   -0.1120 ha        1 IZX      0.142000
     46 H28        -4.6200    3.4490    3.6130 ha        1 IZX      0.142000
     47 H29        -8.0570    3.7530   -0.0070 ha        1 IZX      0.160000
     48 H30        -6.3710    5.2090    3.7010 ha        1 IZX      0.160000
     49 H31        -8.0910    5.3690    1.8940 ha        1 IZX      0.164000
     50 H10        -2.4430   -0.4520   -2.7920 hx        1 IZX      0.166700
     51 HN1D       -3.3060    1.1480   -1.1660 hn        1 IZX      0.490300
     52 H113       -3.8630    1.4980   -2.7380 hn        1 IZX      0.490300
     53 H123       -0.9510    1.8660   -4.0430 hn        1 IZX      0.490300
@<TRIPOS>BOND
     1    1    2 ar
     2    1    3 ar
     3    1    7 1
     4    2    4 ar
     5    2    9 1
     6    3    5 ar
     7    3   13 1
     8    4    6 ar
     9    4   32 1
    10    5    6 ar
    11    5   33 1
    12    6   34 1
    13    7    8 2
    14    7   35 1
    15    8    9 1
    16    8   10 1
    17   10   11 1
    18   10   12 1
    19   10   50 1
    20   11   36 1
    21   11   51 1
    22   11   52 1
    23   12   37 1
    24   12   38 1
    25   12   53 1
    26   13   14 1
    27   14   15 1
    28   14   21 1
    29   14   39 1
    30   15   16 ar
    31   15   17 ar
    32   16   18 ar
    33   16   40 1
    34   17   19 ar
    35   17   41 1
    36   18   20 ar
    37   18   42 1
    38   19   20 ar
    39   19   43 1
    40   20   44 1
    41   21   22 1
    42   21   24 2
    43   22   23 1
    44   23   25 2
    45   24   25 1
    46   25   26 1
    47   26   27 ar
    48   26   28 ar
    49   27   29 ar
    50   27   45 1
    51   28   30 ar
    52   28   46 1
    53   29   31 ar
    54   29   47 1
    55   30   31 ar
    56   30   48 1
    57   31   49 1
@<TRIPOS>SUBSTRUCTURE
     1 IZX         1 TEMP              0 ****  ****    0 ROOT
