@<TRIPOS>MOLECULE
molecule
   44    46     1     0     0
SMALL
bcc


@<TRIPOS>ATOM
      1 OAR          0.0000     0.0000     0.0000 oh         1 IZZ      -0.616800
      2 CAT          1.4300     0.0000     0.0000 c3         1 IZZ       0.116400
      3 CAM          1.9380     0.0000     1.4420 c3         1 IZZ       0.251500
      4 CAO          1.3350    -1.1870     2.1970 c3         1 IZZ      -0.087700
      5 CAW          1.8070    -2.4920     1.5540 c3         1 IZZ      -0.087600
      6 CAV          1.7880    -1.1450     3.6580 c3         1 IZZ      -0.087600
      7 NAJ          1.5430     1.2480     2.1000 nu         1 IZZ      -0.895900
      8 CAG          2.3300     2.3870     1.9620 cc         1 IZZ       0.679200
      9 CAK          1.9430     3.5830     2.5970 cc         1 IZZ      -0.301300
     10 CAI          2.7070     4.7010     2.4680 cd         1 IZZ       0.004000
     11 NAC          3.4290     2.3340     1.2470 nd         1 IZZ      -0.598800
     12 NAA          4.2360     3.4680     1.0960 na         1 IZZ       0.228200
     13 CAD          3.8840     4.6470     1.6960 cd         1 IZZ      -0.112300
     14 NAE          4.8020     5.5590     1.4020 nc         1 IZZ      -0.287600
     15 CAF          5.7360     5.0150     0.6280 cc         1 IZZ       0.019600
     16 CAB          5.4070     3.6910     0.4230 cd         1 IZZ      -0.076300
     17 CAH          6.1690     2.7070    -0.3740 ca         1 IZZ       0.030200
     18 CAL          7.4050     3.0560    -0.9190 ca         1 IZZ      -0.199000
     19 CAQ          5.6560     1.4250    -0.5800 ca         1 IZZ      -0.174000
     20 CAS          6.3700     0.5080    -1.3250 ca         1 IZZ      -0.086000
     21 CAU          7.5920     0.8550    -1.8700 ca         1 IZZ      -0.209000
     22 CAN          8.1140     2.1270    -1.6660 ca         1 IZZ       0.206600
     23 NAP          9.3520     2.4700    -2.2140 nv         1 IZZ      -0.924200
     24 HOAR        -0.3140     0.1520    -0.8760 ho         1 IZZ       0.404000
     25 HAT          1.7910     0.8850    -0.5110 h1         1 IZZ       0.036200
     26 HATA         1.7910    -0.8850    -0.5110 h1         1 IZZ       0.036200
     27 HAM          3.0180    -0.0830     1.4440 h1         1 IZZ       0.085700
     28 HAO          0.2540    -1.1320     2.1520 hc         1 IZZ       0.071700
     29 HAW          2.8710    -2.6130     1.7190 hc         1 IZZ       0.037367
     30 HAWA         1.2760    -3.3260     1.9970 hc         1 IZZ       0.037367
     31 HAWB         1.6090    -2.4630     0.4890 hc         1 IZZ       0.037367
     32 HAV          1.5580    -2.0910     4.1340 hc         1 IZZ       0.037367
     33 HAVA         2.8560    -0.9700     3.7010 hc         1 IZZ       0.037367
     34 HAVB         1.2700    -0.3460     4.1740 hc         1 IZZ       0.037367
     35 HNAJ         0.7020     1.2840     2.6410 hn         1 IZZ       0.459800
     36 HAK          1.0360     3.6120     3.1880 ha         1 IZZ       0.146000
     37 HAI          2.4140     5.6230     2.9550 ha         1 IZZ       0.163000
     38 HAF          6.6100     5.5210     0.2350 h4         1 IZZ       0.187000
     39 HAL          7.8100     4.0480    -0.7590 ha         1 IZZ       0.131000
     40 HAQ          4.6990     1.1490    -0.1540 ha         1 IZZ       0.154000
     41 HAS          5.9700    -0.4860    -1.4850 ha         1 IZZ       0.126000
     42 HAU          8.1480     0.1310    -2.4540 ha         1 IZZ       0.126000
     43 HNAP         9.7470     3.3720    -2.0340 hn         1 IZZ       0.428800
     44 HNAA         9.8390     1.8190    -2.7990 hn         1 IZZ       0.428800
@<TRIPOS>BOND
     1     1     2 1
     2     2     3 1
     3     3     4 1
     4     3     7 1
     5     4     5 1
     6     4     6 1
     7     7     8 1
     8     8     9 1
     9     8    11 2
    10     9    10 2
    11    10    13 1
    12    11    12 1
    13    12    13 1
    14    12    16 1
    15    13    14 2
    16    14    15 1
    17    15    16 2
    18    16    17 1
    19    17    18 ar
    20    17    19 ar
    21    18    22 ar
    22    19    20 ar
    23    20    21 ar
    24    21    22 ar
    25    22    23 1
    26     1    24 1
    27     2    25 1
    28     2    26 1
    29     3    27 1
    30     4    28 1
    31     5    29 1
    32     5    30 1
    33     5    31 1
    34     6    32 1
    35     6    33 1
    36     6    34 1
    37     7    35 1
    38     9    36 1
    39    10    37 1
    40    15    38 1
    41    18    39 1
    42    19    40 1
    43    20    41 1
    44    21    42 1
    45    23    43 1
    46    23    44 1
@<TRIPOS>SUBSTRUCTURE
     1 IZZ         1 TEMP              0 ****  ****    0 ROOT
