@<TRIPOS>MOLECULE
900
   56    60     1     0     0
SMALL
bcc


@<TRIPOS>ATOM
      1 C1           0.0000     0.0000     0.0000 ca         1 900       0.108100
      2 C2           1.3660     0.0000     0.0000 ca         1 900      -0.110000
      3 C3           2.0600     0.0000     1.2220 ca         1 900      -0.036000
      4 C4           1.3300    -0.0010     2.4350 ca         1 900       0.006000
      5 C5          -0.0710    -0.0030     2.3990 ca         1 900      -0.100000
      6 C6          -0.7160     0.0050     1.2000 ca         1 900      -0.127000
      7 C10          3.4660     0.0010     1.2580 ca         1 900      -0.052000
      8 C11          4.1190     0.0010     2.4550 ca         1 900      -0.114000
      9 C12          3.4200    -0.0010     3.6550 ca         1 900      -0.072000
     10 C13          2.0330    -0.0000     3.6670 ca         1 900      -0.145600
     11 O17         -0.6700    -0.0010    -1.1820 os         1 900      -0.214200
     12 C18         -1.3980     1.0990    -1.5000 ca         1 900       0.187100
     13 C19         -2.2200     1.1190    -2.6500 ca         1 900      -0.162300
     14 C20         -2.9600     2.2910    -2.9420 ca         1 900       0.417600
     15 N21         -2.8740     3.3540    -2.1340 nb         1 900      -0.608000
     16 C22         -2.1140     3.3450    -1.0640 ca         1 900       0.450200
     17 C23         -1.3640     2.2320    -0.7080 ca         1 900      -0.343300
     18 C26         -2.3110     0.0070    -3.5000 ca         1 900      -0.169000
     19 C27         -3.1130     0.0630    -4.6020 ca         1 900       0.127100
     20 C28         -3.8480     1.2220    -4.8950 ca         1 900       0.156100
     21 C29         -3.7780     2.3170    -4.0840 ca         1 900      -0.259300
     22 O32         -3.2020    -1.0150    -5.4270 os         1 900      -0.293900
     23 C33         -2.4290    -2.1650    -5.0750 c3         1 900       0.239700
     24 O37         -4.6400     1.2530    -5.9970 os         1 900      -0.293900
     25 C38         -5.3650     2.4600    -6.2420 c3         1 900       0.239700
     26 C42          1.2970    -0.0020     4.9440 c          1 900       0.597700
     27 N43          1.9680     0.1200     6.1070 ns         1 900      -0.031100
     28 C44          1.2640     0.2050     7.3140 ca         1 900      -0.096400
     29 C45          0.0870    -0.5130     7.4850 ca         1 900      -0.106000
     30 C46         -0.6040    -0.4280     8.6770 ca         1 900      -0.081500
     31 C47         -0.1260     0.3710     9.7010 ca         1 900      -0.044600
     32 C48          1.0460     1.0860     9.5330 ca         1 900      -0.081500
     33 C49          1.7450     1.0020     8.3450 ca         1 900      -0.106000
     34 Cl54        -0.9980     0.4760    11.1980 cl         1 900      -0.026400
     35 O55          0.0860    -0.1140     4.9490 o          1 900      -0.643100
     36 H2           1.9110    -0.0040    -0.9360 ha         1 900       0.121000
     37 H5          -0.6390     0.0010     3.3220 ha         1 900       0.182000
     38 H6          -1.7990     0.0040     1.1750 ha         1 900       0.121000
     39 H10          4.0310     0.0020     0.3340 ha         1 900       0.108000
     40 H11          5.2020     0.0000     2.4690 ha         1 900       0.107000
     41 H12          3.9640    -0.0010     4.5920 ha         1 900       0.098000
     42 H22         -2.0790     4.2260    -0.4360 h4         1 900      -0.024900
     43 H23         -0.7450     2.2550     0.1810 ha         1 900       0.136000
     44 H26         -1.7470    -0.8920    -3.2820 ha         1 900       0.138000
     45 H29         -4.3510     3.2060    -4.3210 ha         1 900       0.141000
     46 H331        -2.7330    -2.5190    -4.0980 h1         1 900      -0.001300
     47 H332        -1.3790    -1.9010    -5.0530 h1         1 900      -0.001300
     48 H333        -2.5900    -2.9460    -5.8090 h1         1 900      -0.001300
     49 H381        -5.9530     2.3510    -7.1460 h1         1 900       0.000367
     50 H382        -6.0230     2.6620    -5.4050 h1         1 900       0.000367
     51 H383        -4.6690     3.2810    -6.3600 h1         1 900       0.000367
     52 H43          2.9680     0.1140     6.1110 hn         1 900       0.175500
     53 H45         -0.2870    -1.1390     6.6840 ha         1 900       0.128000
     54 H46         -1.5220    -0.9880     8.8120 ha         1 900       0.116000
     55 H48          1.4190     1.7090    10.3370 ha         1 900       0.116000
     56 H49          2.6630     1.5620     8.2140 ha         1 900       0.128000
@<TRIPOS>BOND
     1     1     2 ar  
     2     1     6 ar  
     3     1    11 1   
     4     2     3 ar  
     5     2    36 1   
     6     3     4 ar  
     7     3     7 ar  
     8     4     5 ar  
     9     4    10 ar  
    10     5     6 ar  
    11     5    37 1   
    12     6    38 1   
    13     7     8 ar  
    14     7    39 1   
    15     8     9 ar  
    16     8    40 1   
    17     9    10 ar  
    18     9    41 1   
    19    10    26 1   
    20    11    12 1   
    21    12    13 ar  
    22    12    17 ar  
    23    13    14 ar  
    24    13    18 ar  
    25    14    15 ar  
    26    14    21 ar  
    27    15    16 ar  
    28    16    17 ar  
    29    16    42 1   
    30    17    43 1   
    31    18    19 ar  
    32    18    44 1   
    33    19    20 ar  
    34    19    22 1   
    35    20    21 ar  
    36    20    24 1   
    37    21    45 1   
    38    22    23 1   
    39    23    46 1   
    40    23    47 1   
    41    23    48 1   
    42    24    25 1   
    43    25    49 1   
    44    25    50 1   
    45    25    51 1   
    46    26    27 1   
    47    26    35 2   
    48    27    28 1   
    49    27    52 1   
    50    28    29 ar  
    51    28    33 ar  
    52    29    30 ar  
    53    29    53 1   
    54    30    31 ar  
    55    30    54 1   
    56    31    32 ar  
    57    31    34 1   
    58    32    33 ar  
    59    32    55 1   
    60    33    56 1   
@<TRIPOS>SUBSTRUCTURE
     1 900         1 TEMP              0 ****  ****    0 ROOT
