@<TRIPOS>MOLECULE
molecule
   56    60     1     0     0
SMALL
bcc


@<TRIPOS>ATOM
      1 C1           0.0000     0.0000     0.0000 ca         1 900       0.106100
      2 C2           1.3660     0.0000     0.0000 ca         1 900      -0.127000
      3 C3           2.0600     0.0000     1.2220 ca         1 900      -0.036000
      4 C4           1.3300    -0.0010     2.4350 ca         1 900      -0.001000
      5 C5          -0.0710    -0.0030     2.3990 ca         1 900      -0.108000
      6 C6          -0.7160     0.0050     1.2000 ca         1 900      -0.149000
      7 C10          3.4660     0.0010     1.2580 ca         1 900      -0.081000
      8 C11          4.1190     0.0010     2.4550 ca         1 900      -0.139000
      9 C12          3.4200    -0.0010     3.6550 ca         1 900      -0.090000
     10 C13          2.0330    -0.0000     3.6670 ca         1 900      -0.138600
     11 O17         -0.6700    -0.0010    -1.1820 os         1 900      -0.243200
     12 C18         -1.3980     1.0990    -1.5000 ca         1 900       0.179100
     13 C19         -2.2200     1.1190    -2.6500 ca         1 900      -0.163300
     14 C20         -2.9600     2.2910    -2.9420 ca         1 900       0.456600
     15 N21         -2.8740     3.3540    -2.1340 nb         1 900      -0.709000
     16 C22         -2.1140     3.3450    -1.0640 ca         1 900       0.462200
     17 C23         -1.3640     2.2320    -0.7080 ca         1 900      -0.353300
     18 C26         -2.3110     0.0070    -3.5000 ca         1 900      -0.177000
     19 C27         -3.1130     0.0630    -4.6020 ca         1 900       0.122100
     20 C28         -3.8480     1.2220    -4.8950 ca         1 900       0.154100
     21 C29         -3.7780     2.3170    -4.0840 ca         1 900      -0.264300
     22 O32         -3.2020    -1.0150    -5.4270 os         1 900      -0.313900
     23 C33         -2.4290    -2.1650    -5.0750 c3         1 900       0.125700
     24 O37         -4.6400     1.2530    -5.9970 os         1 900      -0.310900
     25 C38         -5.3650     2.4600    -6.2420 c3         1 900       0.124700
     26 C42          1.2970    -0.0020     4.9440 c          1 900       0.685700
     27 N43          1.9680     0.1200     6.1070 ns         1 900      -0.472100
     28 C44          1.2640     0.2050     7.3140 ca         1 900       0.052600
     29 C45          0.0870    -0.5130     7.4850 ca         1 900      -0.134500
     30 C46         -0.6040    -0.4280     8.6770 ca         1 900      -0.106000
     31 C47         -0.1260     0.3710     9.7010 ca         1 900       0.014400
     32 C48          1.0460     1.0860     9.5330 ca         1 900      -0.106000
     33 C49          1.7450     1.0020     8.3450 ca         1 900      -0.134500
     34 Cl54        -0.9980     0.4760    11.1980 cl         1 900      -0.109400
     35 O55          0.0860    -0.1140     4.9490 o          1 900      -0.602100
     36 H2           1.9110    -0.0040    -0.9360 ha         1 900       0.149000
     37 H5          -0.6390     0.0010     3.3220 ha         1 900       0.200000
     38 H6          -1.7990     0.0040     1.1750 ha         1 900       0.150000
     39 H10          4.0310     0.0020     0.3340 ha         1 900       0.140000
     40 H11          5.2020     0.0000     2.4690 ha         1 900       0.136000
     41 H12          3.9640    -0.0010     4.5920 ha         1 900       0.124000
     42 H22         -2.0790     4.2260    -0.4360 h4         1 900       0.023100
     43 H23         -0.7450     2.2550     0.1810 ha         1 900       0.151000
     44 H26         -1.7470    -0.8920    -3.2820 ha         1 900       0.157000
     45 H29         -4.3510     3.2060    -4.3210 ha         1 900       0.162000
     46 H331        -2.7330    -2.5190    -4.0980 h1         1 900       0.042700
     47 H332        -1.3790    -1.9010    -5.0530 h1         1 900       0.042700
     48 H333        -2.5900    -2.9460    -5.8090 h1         1 900       0.042700
     49 H381        -5.9530     2.3510    -7.1460 h1         1 900       0.044700
     50 H382        -6.0230     2.6620    -5.4050 h1         1 900       0.044700
     51 H383        -4.6690     3.2810    -6.3600 h1         1 900       0.044700
     52 H43          2.9680     0.1140     6.1110 hn         1 900       0.328500
     53 H45         -0.2870    -1.1390     6.6840 ha         1 900       0.153500
     54 H46         -1.5220    -0.9880     8.8120 ha         1 900       0.147500
     55 H48          1.4190     1.7090    10.3370 ha         1 900       0.147500
     56 H49          2.6630     1.5620     8.2140 ha         1 900       0.153500
@<TRIPOS>BOND
     1    32    33 ar
     2    32    31 ar
     3    33    28 ar
     4    34    31 1
     5    16    15 ar
     6    16    17 ar
     7    31    30 ar
     8    15    14 ar
     9    28    27 1
    10    28    29 ar
    11     9     8 ar
    12     9    10 ar
    13    27    26 1
    14    35    26 2
    15    17    12 ar
    16    26    10 1
    17     8     7 ar
    18    30    29 ar
    19    10     4 ar
    20     7     3 ar
    21    14    21 ar
    22    14    13 ar
    23     4     3 ar
    24     4     5 ar
    25     3     2 ar
    26    21    20 ar
    27     5     6 ar
    28    12    13 ar
    29    12    11 1
    30     2     1 ar
    31    13    18 ar
    32     6     1 ar
    33     1    11 1
    34    20    24 1
    35    20    19 ar
    36    18    19 ar
    37    24    25 1
    38    19    22 1
    39    22    23 1
    40     2    36 1
    41     5    37 1
    42     6    38 1
    43     7    39 1
    44     8    40 1
    45     9    41 1
    46    16    42 1
    47    17    43 1
    48    18    44 1
    49    21    45 1
    50    23    46 1
    51    23    47 1
    52    23    48 1
    53    25    49 1
    54    25    50 1
    55    25    51 1
    56    27    52 1
    57    29    53 1
    58    30    54 1
    59    32    55 1
    60    33    56 1
@<TRIPOS>SUBSTRUCTURE
     1 900         1 TEMP              0 ****  ****    0 ROOT
