@<TRIPOS>MOLECULE
901
   84    85     1     0     0
SMALL
bcc


@<TRIPOS>ATOM
      1 O6           0.0000     0.0000     0.0000 o          1 901      -0.878800
      2 C24          1.3460     0.0000     0.0000 c          1 901       0.929600
      3 O7           1.9520     0.0000     1.0510 o          1 901      -0.878800
      4 C8           2.0920     0.0000    -1.2910 c          1 901       0.518100
      5 O5           1.4850     0.0010    -2.3430 o          1 901      -0.657100
      6 N4           3.4400     0.0010    -1.2920 n          1 901       0.082800
      7 C26          4.1350     0.0010    -2.4970 ca         1 901      -0.016400
      8 C27          4.6070    -1.1900    -3.0310 ca         1 901      -0.145000
      9 C28          5.2970    -1.1870    -4.2270 ca         1 901      -0.142000
     10 C29          5.5230     0.0010    -4.9030 ca         1 901      -0.160000
     11 C30          5.0630     1.1930    -4.3890 ca         1 901      -0.072000
     12 C25          4.3580     1.2060    -3.1820 ca         1 901      -0.088600
     13 C31          3.8630     2.4780    -2.6270 c          1 901       0.971200
     14 O9           3.1580     2.4740    -1.6370 o          1 901      -0.877300
     15 O10          4.1900     3.6440    -3.2160 o          1 901      -0.877300
     16 C2           4.1390     0.0000    -0.0800 ca         1 901       0.022600
     17 C3           4.5920     1.1960     0.4620 ca         1 901      -0.077000
     18 C4           5.2820     1.1910     1.6590 ca         1 901      -0.117000
     19 C5           5.5180    -0.0000     2.3170 ca         1 901      -0.131300
     20 C6           5.0630    -1.1920     1.7840 ca         1 901      -0.115000
     21 C1           4.3720    -1.1940     0.5880 ca         1 901      -0.072300
     22 C32          3.8760    -2.4930     0.0060 c3         1 901       0.013900
     23 C33          2.6020    -2.9250     0.7340 c3         1 901      -0.017100
     24 C7           6.2720    -0.0010     3.6230 c3         1 901       0.013900
     25 C9           7.7690    -0.1530     3.3470 c3         1 901      -0.031300
     26 N1           8.0090    -1.4150     2.6430 ns         1 901      -0.166900
     27 C10          7.6650    -2.5840     3.2180 c          1 901       0.573100
     28 O4           7.1530    -2.5910     4.3180 o          1 901      -0.613100
     29 C23          7.9120    -3.8810     2.4940 c3         1 901      -0.069100
     30 C11          8.5220    -0.1530     4.6510 c          1 901       0.549100
     31 O8           8.7300    -1.1990     5.2310 o          1 901      -0.622100
     32 N2           8.9660     1.0060     5.1740 ns         1 901      -0.211900
     33 C12          9.6990     1.0060     6.4420 c3         1 901       0.051000
     34 C13         10.0850     2.4400     6.8090 c3         1 901      -0.048400
     35 C15         10.8510     2.4390     8.1330 c3         1 901      -0.009400
     36 C14         11.2380     3.8720     8.5000 c3         1 901      -0.101400
     37 C16         11.9920     3.8720     9.8050 c          1 901       0.563100
     38 O1          12.1990     2.8280    10.3840 o          1 901      -0.669100
     39 N3          12.4360     5.0320    10.3280 ns         1 901      -0.135900
     40 C17         13.1690     5.0310    11.5950 c3         1 901      -0.102300
     41 C22         12.1970     5.1810    12.7380 c          1 901       0.975600
     42 O2          12.4470     4.6880    13.8120 o          1 901      -0.886300
     43 O3          11.0530     5.8610    12.5610 o          1 901      -0.886300
     44 C18         14.1590     6.1970    11.6140 c3         1 901      -0.008400
     45 C34         15.1450     6.0470    10.4550 c3         1 901       0.084700
     46 S1          16.3180     7.4290    10.4760 ss         1 901      -0.428200
     47 C35         17.3360     7.0000     9.0370 c3         1 901       0.101000
     48 H27          4.4340    -2.1230    -2.5090 ha         1 901       0.105000
     49 H28          5.6630    -2.1200    -4.6390 ha         1 901       0.069000
     50 H29          6.0670    -0.0070    -5.8400 ha         1 901       0.069000
     51 H30          5.2410     2.1190    -4.9230 ha         1 901       0.119000
     52 H3           4.4070     2.1300    -0.0540 ha         1 901       0.170000
     53 H4           5.6380     2.1230     2.0810 ha         1 901       0.083000
     54 H6           5.2480    -2.1240     2.3050 ha         1 901       0.095000
     55 H321         3.6620    -2.3580    -1.0480 hc         1 901       0.006700
     56 H322         4.6360    -3.2550     0.1250 hc         1 901       0.006700
     57 H331         2.7010    -3.9560     1.0540 hc         1 901       0.013033
     58 H332         2.4480    -2.2920     1.5990 hc         1 901       0.013033
     59 H333         1.7550    -2.8350     0.0650 hc         1 901       0.013033
     60 H71          5.9320    -0.8270     4.2350 hc         1 901       0.040200
     61 H72          6.0930     0.9320     4.1430 hc         1 901       0.040200
     62 H9           8.1080     0.6730     2.7340 h1         1 901       0.031700
     63 HN1          8.4740    -1.4110     1.7570 hn         1 901       0.164500
     64 H231         7.0890    -4.5610     2.6790 hc         1 901       0.014033
     65 H232         7.9920    -3.6920     1.4300 hc         1 901       0.014033
     66 H233         8.8340    -4.3240     2.8520 hc         1 901       0.014033
     67 HN2          8.8120     1.8660     4.6850 hn         1 901       0.174500
     68 H121        10.5950     0.4050     6.3410 h1         1 901       0.024200
     69 H122         9.0720     0.5910     7.2220 h1         1 901       0.024200
     70 H131         9.1900     3.0410     6.9100 hc         1 901       0.012200
     71 H132        10.7130     2.8550     6.0300 hc         1 901       0.012200
     72 H151        10.2230     2.0240     8.9130 hc         1 901       0.031200
     73 H152        11.7460     1.8370     8.0330 hc         1 901       0.031200
     74 H141        10.3420     4.4730     8.6000 hc         1 901       0.020700
     75 H142        11.8660     4.2870     7.7200 hc         1 901       0.020700
     76 HN3         12.2390     5.8970     9.8640 hn         1 901       0.162500
     77 H17         13.7080     4.0980    11.7000 h1         1 901       0.055700
     78 H181        13.6200     7.1310    11.5110 hc         1 901       0.036700
     79 H182        14.7010     6.1950    12.5520 hc         1 901       0.036700
     80 H341        14.6030     6.0480     9.5170 h1         1 901       0.033200
     81 H342        15.6850     5.1130    10.5590 h1         1 901       0.033200
     82 H351        17.7490     6.0080     9.1700 h1         1 901       0.023700
     83 H352        16.7240     7.0200     8.1430 h1         1 901       0.023700
     84 H353        18.1430     7.7170     8.9390 h1         1 901       0.023700
@<TRIPOS>BOND
     1     1     2 1   
     2     2     3 1   
     3     2     4 1   
     4     4     5 2   
     5     4     6 1   
     6     6     7 1   
     7     6    16 1   
     8     7     8 ar  
     9     7    12 ar  
    10     8     9 ar  
    11     8    48 1   
    12     9    10 ar  
    13     9    49 1   
    14    10    11 ar  
    15    10    50 1   
    16    11    12 ar  
    17    11    51 1   
    18    12    13 1   
    19    13    14 1   
    20    13    15 1   
    21    16    17 ar  
    22    16    21 ar  
    23    17    18 ar  
    24    17    52 1   
    25    18    19 ar  
    26    18    53 1   
    27    19    20 ar  
    28    19    24 1   
    29    20    21 ar  
    30    20    54 1   
    31    21    22 1   
    32    22    23 1   
    33    22    55 1   
    34    22    56 1   
    35    23    57 1   
    36    23    58 1   
    37    23    59 1   
    38    24    25 1   
    39    24    60 1   
    40    24    61 1   
    41    25    26 1   
    42    25    30 1   
    43    25    62 1   
    44    26    27 1   
    45    26    63 1   
    46    27    28 2   
    47    27    29 1   
    48    29    64 1   
    49    29    65 1   
    50    29    66 1   
    51    30    31 2   
    52    30    32 1   
    53    32    33 1   
    54    32    67 1   
    55    33    34 1   
    56    33    68 1   
    57    33    69 1   
    58    34    35 1   
    59    34    70 1   
    60    34    71 1   
    61    35    36 1   
    62    35    72 1   
    63    35    73 1   
    64    36    37 1   
    65    36    74 1   
    66    36    75 1   
    67    37    38 2   
    68    37    39 1   
    69    39    40 1   
    70    39    76 1   
    71    40    41 1   
    72    40    44 1   
    73    40    77 1   
    74    41    42 1   
    75    41    43 1   
    76    44    45 1   
    77    44    78 1   
    78    44    79 1   
    79    45    46 1   
    80    45    80 1   
    81    45    81 1   
    82    46    47 1   
    83    47    82 1   
    84    47    83 1   
    85    47    84 1   
@<TRIPOS>SUBSTRUCTURE
     1 901         1 TEMP              0 ****  ****    0 ROOT
