@<TRIPOS>MOLECULE
molecule
   63    67     1     0     0
SMALL
bcc


@<TRIPOS>ATOM
      1 S1           0.0000     0.0000     0.0000 ss         1 902      -0.024800
      2 C2           1.7110     0.0000     0.0000 cc         1 902      -0.194600
      3 C3           2.2290     0.0000     1.2770 cd         1 902       0.195100
      4 C4           1.2060    -0.0000     2.2680 cd         1 902      -0.047900
      5 C5          -0.0570    -0.0000     1.7130 cc         1 902      -0.020100
      6 C6           2.5140    -0.0010    -1.2400 cc         1 902       0.595500
      7 N7           1.9630     0.0010    -2.4540 nd         1 902      -0.530800
      8 N8           3.8740    -0.0020    -1.2380 nc         1 902      -0.298000
      9 C9          -1.3520     0.0010     2.3500 ca         1 902       0.033000
     10 C10         -1.9790     1.2080     2.6570 ca         1 902      -0.185000
     11 C11         -3.2440     1.2300     3.2760 ca         1 902       0.193600
     12 C12         -3.8560    -0.0020     3.5790 ca         1 902      -0.211000
     13 C13         -3.2290    -1.2090     3.2710 ca         1 902      -0.090000
     14 C14         -1.9760    -1.2080     2.6570 ca         1 902      -0.155000
     15 Br19         1.5910     0.0010     4.1190 br         1 902      -0.053100
     16 O20          3.5540    -0.0000     1.5220 os         1 902      -0.295900
     17 C21          4.2060     1.2710     1.6430 c3         1 902       0.048400
     18 C22          5.6730     1.0670     1.8990 c          1 902       0.905600
     19 O25          6.3040     2.2650     1.9840 o          1 902      -0.827800
     20 O26          6.2370    -0.0110     2.0150 o          1 902      -0.827800
     21 N28         -3.8650     2.4270     3.5820 nu         1 902      -0.817600
     22 C29         -3.2880     3.7210     3.3000 c3         1 902       0.246500
     23 C30         -4.3680     4.8040     3.2320 c3         1 902      -0.091400
     24 C31         -4.9220     5.1580     4.6110 c3         1 902       0.189300
     25 N32         -3.8020     5.5600     5.5100 n3         1 902      -0.699500
     26 C33         -2.8000     4.4700     5.6840 c3         1 902       0.189300
     27 C34         -2.2110     4.0910     4.3250 c3         1 902      -0.091400
     28 S44         -4.2740     6.3560     6.9540 s6         1 902       1.229900
     29 O45         -5.1350     7.4650     6.6120 o          1 902      -0.595800
     30 O46         -3.1080     6.5260     7.7920 o          1 902      -0.595800
     31 C47         -5.2790     5.0790     7.6630 c3         1 902      -0.206300
     32 C48         -5.8050     5.5850     8.9710 ca         1 902      -0.091300
     33 C51         -7.0170     6.2690     9.0110 ca         1 902      -0.104000
     34 C52         -7.5070     6.7410    10.2280 ca         1 902      -0.128000
     35 C53         -6.7830     6.5280    11.4010 ca         1 902      -0.122000
     36 C54         -5.5690     5.8430    11.3570 ca         1 902      -0.128000
     37 C55         -5.0790     5.3700    10.1380 ca         1 902      -0.104000
     38 N61          4.2370    -0.0010    -2.5150 nd         1 902      -0.157800
     39 N62          3.0820     0.0020    -3.1930 na         1 902       0.109900
     40 H10         -1.4870     2.1420     2.4140 ha         1 902       0.140000
     41 H12         -4.8290    -0.0130     4.0560 ha         1 902       0.118000
     42 H13         -3.7140    -2.1480     3.5110 ha         1 902       0.127000
     43 H14         -1.4890    -2.1460     2.4180 ha         1 902       0.141000
     44 H211         3.7700     1.8220     2.4670 h1         1 902       0.028200
     45 H212         4.0750     1.8310     0.7260 h1         1 902       0.028200
     46 HN28        -4.7630     2.3950     4.0220 hn         1 902       0.422800
     47 H29         -2.8120     3.6710     2.3280 h1         1 902       0.063700
     48 H301        -5.1800     4.4480     2.6100 hc         1 902       0.066700
     49 H302        -3.9420     5.6950     2.7880 hc         1 902       0.066700
     50 H311        -5.4260     4.2940     5.0280 h1         1 902       0.051700
     51 H312        -5.6210     5.9800     4.5170 h1         1 902       0.051700
     52 H331        -3.2830     3.6040     6.1200 h1         1 902       0.051700
     53 H332        -2.0060     4.8130     6.3360 h1         1 902       0.051700
     54 H341        -1.5490     3.2430     4.4570 hc         1 902       0.066700
     55 H342        -1.6420     4.9300     3.9460 hc         1 902       0.066700
     56 H471        -4.6820     4.1900     7.8270 h1         1 902       0.103200
     57 H472        -6.1040     4.8490     7.0000 h1         1 902       0.103200
     58 H51         -7.5780     6.4340     8.0990 ha         1 902       0.140500
     59 H52         -8.4500     7.2730    10.2620 ha         1 902       0.132500
     60 H53         -7.1640     6.8950    12.3470 ha         1 902       0.129000
     61 H54         -5.0070     5.6770    12.2680 ha         1 902       0.132500
     62 H55         -4.1360     4.8380    10.1010 ha         1 902       0.140500
     63 HN62         3.0550     0.0030    -4.1940 hn         1 902       0.330700
@<TRIPOS>BOND
     1     1     5 1
     2     1     2 1
     3     2     6 1
     4     2     3 2
     5     3     4 1
     6     3    16 1
     7     4     5 2
     8     4    15 1
     9     5     9 1
    10     6     7 2
    11     6     8 1
    12     7    39 1
    13     8    38 2
    14     9    14 ar
    15     9    10 ar
    16    10    11 ar
    17    10    40 1
    18    11    12 ar
    19    11    21 1
    20    12    13 ar
    21    12    41 1
    22    13    14 ar
    23    13    42 1
    24    14    43 1
    25    16    17 1
    26    17    18 1
    27    17    44 1
    28    17    45 1
    29    18    20 1
    30    18    19 1
    31    21    22 1
    32    21    46 1
    33    22    27 1
    34    22    23 1
    35    22    47 1
    36    23    24 1
    37    23    48 1
    38    23    49 1
    39    24    25 1
    40    24    50 1
    41    24    51 1
    42    25    26 1
    43    25    28 1
    44    26    27 1
    45    26    52 1
    46    26    53 1
    47    27    54 1
    48    27    55 1
    49    28    31 1
    50    28    30 2
    51    28    29 2
    52    31    32 1
    53    31    56 1
    54    31    57 1
    55    32    37 ar
    56    32    33 ar
    57    33    34 ar
    58    33    58 1
    59    34    35 ar
    60    34    59 1
    61    35    36 ar
    62    35    60 1
    63    36    37 ar
    64    36    61 1
    65    37    62 1
    66    38    39 1
    67    39    63 1
@<TRIPOS>SUBSTRUCTURE
     1 902         1 TEMP              0 ****  ****    0 ROOT
