@<TRIPOS>MOLECULE
molecule
   82    85     1     0     0
SMALL
bcc


@<TRIPOS>ATOM
      1 C1           0.0000     0.0000     0.0000 ca         1 903      -0.156300
      2 C2           1.3840     0.0000     0.0000 ca         1 903      -0.141000
      3 C3           2.0810     0.0000     1.1950 ca         1 903      -0.105000
      4 C4           1.4000     0.0040     2.3950 ca         1 903       0.054700
      5 C5           0.0040    -0.0010     2.4010 ca         1 903      -0.094600
      6 C6          -0.6930    -0.0010     1.1910 ca         1 903      -0.098000
      7 C7          -0.7500     0.0000    -1.3070 c3         1 903      -0.034100
      8 C8          -1.0040     1.4430    -1.7470 c3         1 903       0.063700
      9 C9          -1.7550     1.4440    -3.0550 c          1 903       0.629100
     10 N10         -1.0790     1.4450    -4.2200 ns         1 903      -0.607900
     11 O11         -2.9670     1.4440    -3.0560 o          1 903      -0.558100
     12 N12         -1.7980     2.1340    -0.7280 ns         1 903      -0.567900
     13 C13         -3.0210     1.6730    -0.4000 c          1 903       0.667100
     14 O14         -3.4640     0.6880    -0.9500 o          1 903      -0.584100
     15 C15         -3.8380     2.3820     0.6470 c3         1 903      -0.166100
     16 C16         -1.8090     1.4450    -5.4910 c3         1 903       0.055700
     17 C17         -2.3320     0.0540    -5.7770 c          1 903       0.701500
     18 N18         -1.5180    -1.0010    -5.6770 n          1 903      -0.471800
     19 O19         -3.4900    -0.1060    -6.1040 o          1 903      -0.653500
     20 C20         -0.1130    -0.8230    -5.2740 c3         1 903       0.089000
     21 C21          0.6490    -0.1740    -6.4320 c3         1 903      -0.108400
     22 C22         -2.0290    -2.3430    -5.9650 c3         1 903       0.157300
     23 C23         -2.5740    -2.9540    -4.7000 ca         1 903      -0.120300
     24 C24          0.5360     1.3380    -6.3730 c3         1 903      -0.085400
     25 C25         -0.8670     1.8580    -6.6240 c3         1 903      -0.090400
     26 C26         -1.7450    -3.7020    -3.8830 ca         1 903      -0.109500
     27 C27         -2.2380    -4.2610    -2.7210 ca         1 903      -0.113000
     28 C28         -3.5760    -4.0790    -2.3780 cp         1 903      -0.026000
     29 C29         -4.4070    -3.3300    -3.2070 ca         1 903      -0.113000
     30 C30         -3.9020    -2.7710    -4.3640 ca         1 903      -0.109500
     31 C31         -4.1130    -4.6820    -1.1330 cp         1 903      -0.034000
     32 C32         -5.0090    -3.9680    -0.3400 ca         1 903      -0.110000
     33 C33         -5.5100    -4.5360     0.8130 ca         1 903      -0.129000
     34 C34         -5.1160    -5.8060     1.1900 ca         1 903      -0.128000
     35 C35         -4.2210    -6.5170     0.4110 ca         1 903      -0.129000
     36 C36         -3.7180    -5.9610    -0.7490 ca         1 903      -0.110000
     37 C37         -0.7310    -0.0010     3.6820 c          1 903       0.627700
     38 O38         -2.0730     0.1150     3.6870 os         1 903      -0.472900
     39 O39         -0.1260    -0.1050     4.7300 o          1 903      -0.450000
     40 C40          2.1620     0.0040     3.6950 c3         1 903       0.008600
     41 C41          3.6320     0.1770     3.4170 c          1 903       0.924600
     42 O42          4.3270    -0.8170     2.8400 o          1 903      -0.855550
     43 O43          4.1860     1.2090     3.7130 o          1 903      -0.855550
     44 C75          1.9350    -1.3020     4.4090 c          1 903       0.924600
     45 O76          2.5190    -1.5290     5.5970 o          1 903      -0.855550
     46 O77          1.2280    -2.1470     3.9130 o          1 903      -0.855550
     47 F80          1.7130     1.0570     4.4990 f          1 903      -0.247300
     48 C81         -2.7970     0.1150     4.9460 c3         1 903       0.152700
     49 H2           1.9240    -0.0010    -0.9390 ha         1 903       0.092000
     50 H3           3.1650     0.0020     1.1890 ha         1 903       0.196000
     51 H6          -1.7770    -0.0030     1.1890 ha         1 903       0.123000
     52 H71         -0.1630    -0.5100    -2.0610 hc         1 903       0.061700
     53 H72         -1.6970    -0.5110    -1.1800 hc         1 903       0.061700
     54 H8          -0.0570     1.9540    -1.8750 h1         1 903       0.057700
     55 H10         -0.0800     1.5120    -4.2180 hn         1 903       0.322500
     56 H12         -1.4430     2.9630    -0.2950 hn         1 903       0.316500
     57 H151        -4.4450     1.6610     1.1810 hc         1 903       0.055033
     58 H152        -4.4810     3.1120     0.1710 hc         1 903       0.055033
     59 H153        -3.1770     2.8830     1.3440 hc         1 903       0.055033
     60 H16         -2.6380     2.1400    -5.4390 h1         1 903       0.100700
     61 H201         0.3250    -1.7880    -5.0480 h1         1 903       0.070200
     62 H202        -0.0630    -0.1820    -4.4030 h1         1 903       0.070200
     63 H211         1.6940    -0.4550    -6.3700 hc         1 903       0.048200
     64 H212         0.2360    -0.5250    -7.3700 hc         1 903       0.048200
     65 H221        -2.8180    -2.2780    -6.7040 h1         1 903       0.053700
     66 H222        -1.2250    -2.9610    -6.3470 h1         1 903       0.053700
     67 H241         0.8550     1.6690    -5.3920 hc         1 903       0.040700
     68 H242         1.1980     1.7620    -7.1190 hc         1 903       0.040700
     69 H251        -0.8390     2.9390    -6.6870 hc         1 903       0.051200
     70 H252        -1.2350     1.4500    -7.5580 hc         1 903       0.051200
     71 H26         -0.7050    -3.8420    -4.1510 ha         1 903       0.134000
     72 H27         -1.5870    -4.8440    -2.0810 ha         1 903       0.136500
     73 H29         -5.4480    -3.1850    -2.9450 ha         1 903       0.136500
     74 H30         -4.5480    -2.1890    -5.0100 ha         1 903       0.134000
     75 H32         -5.3190    -2.9730    -0.6350 ha         1 903       0.136000
     76 H33         -6.2090    -3.9830     1.4280 ha         1 903       0.124000
     77 H34         -5.5100    -6.2470     2.0980 ha         1 903       0.121000
     78 H35         -3.9150    -7.5120     0.7100 ha         1 903       0.124000
     79 H36         -3.0180    -6.5190    -1.3590 ha         1 903       0.136000
     80 H811        -3.8590     0.2010     4.7520 h1         1 903       0.029033
     81 H812        -2.4710     0.9530     5.5500 h1         1 903       0.029033
     82 H813        -2.6010    -0.8100     5.4760 h1         1 903       0.029033
@<TRIPOS>BOND
     1     1     2 ar  
     2     1     6 ar  
     3     1     7 1   
     4     2     3 ar  
     5     2    49 1   
     6     3     4 ar  
     7     3    50 1   
     8     4     5 ar  
     9     4    40 1   
    10     5     6 ar  
    11     5    37 1   
    12     6    51 1   
    13     7     8 1   
    14     7    52 1   
    15     7    53 1   
    16     8     9 1   
    17     8    12 1   
    18     8    54 1   
    19     9    10 1   
    20     9    11 2   
    21    10    16 1   
    22    10    55 1   
    23    12    13 1   
    24    12    56 1   
    25    13    14 2   
    26    13    15 1   
    27    15    57 1   
    28    15    58 1   
    29    15    59 1   
    30    16    17 1   
    31    16    25 1   
    32    16    60 1   
    33    17    18 1   
    34    17    19 2   
    35    18    20 1   
    36    18    22 1   
    37    20    21 1   
    38    20    61 1   
    39    20    62 1   
    40    21    24 1   
    41    21    63 1   
    42    21    64 1   
    43    22    23 1   
    44    22    65 1   
    45    22    66 1   
    46    23    26 ar  
    47    23    30 ar  
    48    24    25 1   
    49    24    67 1   
    50    24    68 1   
    51    25    69 1   
    52    25    70 1   
    53    26    27 ar  
    54    26    71 1   
    55    27    28 ar  
    56    27    72 1   
    57    28    29 ar  
    58    28    31 1   
    59    29    30 ar  
    60    29    73 1   
    61    30    74 1   
    62    31    32 ar  
    63    31    36 ar  
    64    32    33 ar  
    65    32    75 1   
    66    33    34 ar  
    67    33    76 1   
    68    34    35 ar  
    69    34    77 1   
    70    35    36 ar  
    71    35    78 1   
    72    36    79 1   
    73    37    38 1   
    74    37    39 2   
    75    38    48 1   
    76    40    41 1   
    77    40    44 1   
    78    40    47 1   
    79    41    42 1   
    80    41    43 1   
    81    44    45 1   
    82    44    46 1   
    83    48    80 1   
    84    48    81 1   
    85    48    82 1   
@<TRIPOS>SUBSTRUCTURE
     1 903         1 TEMP              0 ****  ****    0 ROOT
