@<TRIPOS>MOLECULE
molecule
   58    62     1     0     0
SMALL
bcc


@<TRIPOS>ATOM
      1 S1           0.0000     0.0000     0.0000 s6         1 904       1.548800
      2 C2           6.7760    -0.3580     2.4080 cc         1 904      -0.239400
      3 C4           4.2400    -0.5730     2.5730 ca         1 904      -0.220600
      4 C5           8.1300     0.0490     2.8270 ca         1 904      -0.171100
      5 N6           1.6560     0.0000     0.0000 nu         1 904      -0.772500
      6 C8           6.9380    -1.1670     1.3210 cd         1 904      -0.027100
      7 C10          2.3550    -0.5690     1.0710 ca         1 904       0.097600
      8 C11          3.5460     0.0000     1.5030 ca         1 904       0.150900
      9 C12          9.0170    -0.5690     1.9270 ca         1 904       0.457800
     10 N13          8.2570    -1.2930     1.0360 na         1 904      -0.260100
     11 C15         11.6730     3.3810     6.9280 ca         1 904       0.721300
     12 C16          8.6290     0.8520     3.8460 ca         1 904      -0.033000
     13 N18         10.3250    -0.3850     2.0560 nb         1 904      -0.703000
     14 N19         10.3620     3.2500     6.8720 nb         1 904      -0.729500
     15 N20         12.4740     2.7860     6.0670 nb         1 904      -0.729500
     16 C21         12.2740     4.2440     8.0070 cx         1 904      -0.178000
     17 C23         10.0120     1.0130     3.9360 cp         1 904      -0.178300
     18 N24         -0.4900     1.0130     1.2140 n3         1 904      -0.825500
     19 C25         13.1140     5.4440     7.5660 cx         1 904      -0.119900
     20 C28         13.7950     4.2150     8.1700 cx         1 904      -0.119900
     21 C31         10.6040     1.8570     5.0020 cp         1 904      -0.287600
     22 C32          3.7320    -1.7190     3.1950 ca         1 904       0.168900
     23 O33         -0.4000     0.6110    -1.2190 o          1 904      -0.641800
     24 O34         -0.4010    -1.3080     0.3810 o          1 904      -0.641800
     25 O35          5.4990     0.8360     3.9470 o          1 904      -0.506100
     26 C36         11.9870     2.0250     5.1010 ca         1 904       0.466700
     27 C38          9.7930     2.5070     5.9370 ca         1 904       0.466700
     28 C40         10.8310     0.3670     3.0080 ca         1 904       0.456200
     29 C42          1.8590    -1.7030     1.7000 ca         1 904      -0.125000
     30 C44          2.5470    -2.2750     2.7550 ca         1 904      -0.162000
     31 F46          4.0310     1.1030     0.8920 f          1 904      -0.122900
     32 F47          4.4010    -2.2810     4.2260 f          1 904      -0.121900
     33 C48         -0.7080     0.4870     2.5640 c3         1 904       0.222800
     34 C51         -0.7070     2.4360     0.9390 c3         1 904       0.232100
     35 C55          0.5570     0.6910     3.4000 c3         1 904      -0.126100
     36 H1           2.1560     0.3580    -0.7900 hn         1 904       0.469800
     37 H2           6.1340    -1.6390     0.7690 h4         1 904       0.179000
     38 H3           8.6270    -1.8370     0.2820 hn         1 904       0.311700
     39 H4           7.9690     1.5320     4.3720 ha         1 904       0.162000
     40 H5          11.7220     4.3910     8.9280 hc         1 904       0.103700
     41 H6          13.0630     6.3130     8.2100 hc         1 904       0.082450
     42 H7          13.2310     5.5650     6.4960 hc         1 904       0.082450
     43 H8          14.3280     3.5840     7.4690 hc         1 904       0.082450
     44 H9          14.1590     4.3330     9.1830 hc         1 904       0.082450
     45 H10         12.6520     1.5390     4.3970 h4         1 904       0.034600
     46 H11          8.7160     2.4040     5.8960 h4         1 904       0.034600
     47 H12         11.9050     0.4890     3.0730 h4         1 904       0.028100
     48 H13          0.9300    -2.1450     1.3600 ha         1 904       0.209000
     49 H14          2.1540    -3.1610     3.2390 ha         1 904       0.161000
     50 H15         -0.9370    -0.5710     2.5070 h1         1 904       0.064700
     51 H16         -1.5350     1.0110     3.0270 h1         1 904       0.064700
     52 H17         -1.7310     2.5910     0.6230 h1         1 904       0.044700
     53 H18         -0.0340     2.7590     0.1540 h1         1 904       0.044700
     54 H19         -0.5160     3.0110     1.8370 h1         1 904       0.044700
     55 H20          0.3310     1.3290     4.2460 hc         1 904       0.045700
     56 H21          0.9130    -0.2680     3.7560 hc         1 904       0.045700
     57 H22          1.3210     1.1570     2.7910 hc         1 904       0.045700
     58 C3           5.5070     0.0260     3.0400 c          1 904       0.629900
@<TRIPOS>BOND
     1    20    16 1   
     2    20    19 1   
     3    16    19 1   
     4    16    11 1   
     5    15    11 ar  
     6    15    26 ar  
     7    11    14 ar  
     8    25    58 2   
     9    24     1 2   
    10    26    21 ar  
    11    14    27 ar  
    12    32    22 1   
    13    22    30 ar  
    14    22     3 ar  
    15    30    29 ar  
    16    58     3 1   
    17    58     2 1   
    18     3     8 ar  
    19    29     7 ar  
    20     8     7 ar  
    21     8    31 1   
    22     7     5 1   
    23     5     1 1   
    24    27    21 ar  
    25    21    17 1   
    26     1    23 2   
    27     1    18 1   
    28    12    17 ar  
    29    12     4 ar  
    30    17    28 ar  
    31     2     4 1   
    32     2     6 2   
    33     4     9 ar  
    34    18    34 1   
    35    18    33 1   
    36     6    10 1   
    37    28    13 ar  
    38     9    13 ar  
    39     9    10 1   
    40    33    35 1   
    41     5    36 1   
    42     6    37 1   
    43    10    38 1   
    44    12    39 1   
    45    16    40 1   
    46    19    41 1   
    47    19    42 1   
    48    20    43 1   
    49    20    44 1   
    50    26    45 1   
    51    27    46 1   
    52    28    47 1   
    53    29    48 1   
    54    30    49 1   
    55    33    50 1   
    56    33    51 1   
    57    34    52 1   
    58    34    53 1   
    59    34    54 1   
    60    35    55 1   
    61    35    56 1   
    62    35    57 1   
@<TRIPOS>SUBSTRUCTURE
     1 904         1 TEMP              0 ****  ****    0 ROOT
