@<TRIPOS>MOLECULE
molecule
   67    69     1     0     0
SMALL
bcc


@<TRIPOS>ATOM
      1 O1           0.0000     0.0000     0.0000 oh         1 905      -0.471100
      2 C1           1.3570     0.0000     0.0000 ca         1 905       0.261100
      3 C2           2.0510     0.0000     1.1970 ca         1 905      -0.286000
      4 C3           3.4400     0.0060     1.1950 ca         1 905       0.287600
      5 N1           4.1360     0.0110     2.4010 nu         1 905      -0.768600
      6 C4           5.6000     0.0110     2.4020 c3         1 905       0.208800
      7 C5           6.1010     0.7260     3.6290 c          1 905       0.690100
      8 O2           5.3120     1.1900     4.4260 o          1 905      -0.564100
      9 N2           7.4260     0.8500     3.8420 ns         1 905      -0.642300
     10 S1           7.9780     1.6360     5.1920 sy         1 905       1.411900
     11 O3           9.3840     1.4400     5.2050 o          1 905      -0.608300
     12 O4           7.3230     2.8980     5.1990 o          1 905      -0.608300
     13 C6           7.3610     0.7680     6.5960 ca         1 905      -0.269500
     14 C7           8.0970    -0.2630     7.1490 ca         1 905      -0.090000
     15 C8           7.6170    -0.9470     8.2500 ca         1 905      -0.105000
     16 C9           6.3990    -0.6010     8.8020 ca         1 905      -0.152000
     17 C10          5.6560     0.4350     8.2490 ca         1 905       0.182600
     18 N3           4.4250     0.7870     8.8050 nv         1 905      -0.919200
     19 C11          6.1460     1.1230     7.1450 ca         1 905      -0.091000
     20 C12          6.1020    -1.4090     2.4080 ca         1 905      -0.102300
     21 C13          7.3100    -1.7160     1.8090 ca         1 905       0.053900
     22 F1           8.0400    -0.7430     1.2220 f          1 905      -0.138900
     23 C14          7.7750    -3.0260     1.8130 ca         1 905       0.143100
     24 O5           8.9630    -3.3280     1.2250 os         1 905      -0.276900
     25 C15          9.1610    -4.7330     1.3930 c3         1 905       0.109400
     26 C16         10.4870    -5.1420     0.7500 c3         1 905      -0.096100
     27 C17          7.0260    -4.0220     2.4170 ca         1 905      -0.292000
     28 C18          5.8150    -3.7110     3.0150 ca         1 905       0.163100
     29 O6           5.0790    -4.6880     3.6080 os         1 905      -0.285900
     30 C19          5.8080    -5.9070     3.4510 c3         1 905       0.108400
     31 C20          5.0280    -7.0540     4.0990 c3         1 905      -0.096100
     32 C21          5.3530    -2.4050     3.0050 ca         1 905      -0.155000
     33 C22          4.1380     0.0010    -0.0090 ca         1 905      -0.210000
     34 C23          3.4560    -0.0030    -1.2050 ca         1 905      -0.056000
     35 C24          2.0590    -0.0030    -1.2120 ca         1 905      -0.291900
     36 C25          1.3260    -0.0100    -2.4930 ce         1 905       0.548800
     37 N4           0.0220    -0.0100    -2.4980 n2         1 905      -0.673100
     38 N5           2.0190    -0.0140    -3.6850 nz         1 905      -0.800600
     39 HO1         -0.3140     0.6030     0.6530 ho         1 905       0.443000
     40 H2           1.5110    -0.0050     2.1360 ha         1 905       0.165000
     41 HN1          3.6350     0.0400     3.2680 hn         1 905       0.477800
     42 H4           5.9610     0.5180     1.5160 h1         1 905       0.098700
     43 HN2          8.0760     0.5220     3.1550 hn         1 905       0.358500
     44 H7           9.0530    -0.5360     6.7180 ha         1 905       0.147000
     45 H8           8.1960    -1.7540     8.6810 ha         1 905       0.138000
     46 H9           6.0240    -1.1370     9.6650 ha         1 905       0.136000
     47 HN31         4.0760     0.2930     9.6020 hn         1 905       0.434300
     48 HN32         3.8920     1.5360     8.4080 hn         1 905       0.434300
     49 H11          5.5700     1.9320     6.7100 ha         1 905       0.163000
     50 H151         8.3490    -5.2720     0.9180 h1         1 905       0.041700
     51 H152         9.1830    -4.9720     2.4490 h1         1 905       0.041700
     52 H161        10.4640    -4.9070    -0.3080 hc         1 905       0.055033
     53 H162        10.6390    -6.2070     0.8800 hc         1 905       0.055033
     54 H163        11.2990    -4.6010     1.2220 hc         1 905       0.055033
     55 H17          7.3870    -5.0440     2.4210 ha         1 905       0.174000
     56 H191         6.7760    -5.8130     3.9270 h1         1 905       0.042200
     57 H192         5.9430    -6.1130     2.3960 h1         1 905       0.042200
     58 H201         5.5800    -7.9790     3.9800 hc         1 905       0.053700
     59 H202         4.0600    -7.1470     3.6230 hc         1 905       0.053700
     60 H203         4.8940    -6.8480     5.1540 hc         1 905       0.053700
     61 H21          4.4060    -2.1620     3.4730 ha         1 905       0.157000
     62 H22          5.2210     0.0040    -0.0060 ha         1 905       0.160000
     63 H23          4.0020    -0.0060    -2.1400 ha         1 905       0.108000
     64 HN4         -0.4770    -0.0140    -3.3660 hn         1 905       0.420400
     65 HN51         1.3710    -0.0180    -4.4480 hn         1 905       0.459800
     66 HN52         2.5930     0.8040    -3.7400 hn         1 905       0.459800
     67 H53          2.5960    -0.8300    -3.7330 hn         1 905       0.459800
@<TRIPOS>BOND
     1     1     2 1   
     2     1    39 1   
     3     2     3 ar  
     4     2    35 ar  
     5     3     4 ar  
     6     3    40 1   
     7     4     5 1   
     8     4    33 ar  
     9     5     6 1   
    10     5    41 1   
    11     6     7 1   
    12     6    20 1   
    13     6    42 1   
    14     7     8 2   
    15     7     9 1   
    16     9    10 1   
    17     9    43 1   
    18    10    11 2   
    19    10    12 2   
    20    10    13 1   
    21    13    14 ar  
    22    13    19 ar  
    23    14    15 ar  
    24    14    44 1   
    25    15    16 ar  
    26    15    45 1   
    27    16    17 ar  
    28    16    46 1   
    29    17    18 1   
    30    17    19 ar  
    31    18    47 1   
    32    18    48 1   
    33    19    49 1   
    34    20    21 ar  
    35    20    32 ar  
    36    21    22 1   
    37    21    23 ar  
    38    23    24 1   
    39    23    27 ar  
    40    24    25 1   
    41    25    26 1   
    42    25    50 1   
    43    25    51 1   
    44    26    52 1   
    45    26    53 1   
    46    26    54 1   
    47    27    28 ar  
    48    27    55 1   
    49    28    29 1   
    50    28    32 ar  
    51    29    30 1   
    52    30    31 1   
    53    30    56 1   
    54    30    57 1   
    55    31    58 1   
    56    31    59 1   
    57    31    60 1   
    58    32    61 1   
    59    33    34 ar  
    60    33    62 1   
    61    34    35 ar  
    62    34    63 1   
    63    35    36 1   
    64    36    37 2   
    65    36    38 1   
    66    37    64 1   
    67    38    65 1   
    68    38    66 1   
    69    67    38 1   
@<TRIPOS>SUBSTRUCTURE
     1 905         1 TEMP              0 ****  ****    0 ROOT
