@<TRIPOS>MOLECULE
molecule
   62    64     1     0     0
SMALL
bcc


@<TRIPOS>ATOM
      1 CAA          0.0000     0.0000     0.0000 c3         1 906      -0.093100
      2 CAB         12.1280     1.5170     2.2130 c3         1 906      -0.156100
      3 CAE          3.9750    -0.0000     2.6260 ce         1 906       0.365800
      4 CAF         20.2110     8.3380     1.4540 ca         1 906       0.448200
      5 CAG         19.4190     7.2740     1.8260 ca         1 906      -0.283300
      6 CAH          5.2710     0.1410     4.9810 ca         1 906      -0.037000
      7 CAI          5.8720     0.1210     2.6400 ca         1 906      -0.037000
      8 CAJ          6.6060     0.1650     5.3200 ca         1 906      -0.207500
      9 CAK          7.2050     0.1460     2.9870 ca         1 906      -0.207500
     10 CAL         21.0440     5.8080     0.8580 ca         1 906      -0.289300
     11 CAM          1.5310     0.0000     0.0000 c3         1 906       0.151400
     12 CAN          9.8370     0.1920     3.5910 c3         1 906       0.137400
     13 CAO         11.2550     0.2200     4.1630 c3         1 906      -0.085400
     14 CAP         13.6850     0.1250     3.5840 c3         1 906      -0.314400
     15 CAQ         14.6880    -0.0000     2.4370 c3         1 906       0.234000
     16 CAR         17.6360     1.4060     2.4790 c3         1 906       0.011000
     17 CAS         18.2530     2.6540     1.8210 c3         1 906      -0.035000
     18 NAT          3.4190    -0.0000     1.4580 n2         1 906      -0.382200
     19 NAU         21.3530     8.1450     0.8210 nb         1 906      -0.730000
     20 OAV          2.0070     0.0000     1.3460 os         1 906      -0.223300
     21 OAW          8.8910     0.1910     4.6640 os         1 906      -0.327900
     22 CAX         16.0580     2.4560     1.1930 c          1 906       0.677500
     23 CAY         21.7850     6.9300     0.5160 ca         1 906       0.691200
     24 CAZ          4.8930     0.1190     3.6360 ca         1 906      -0.167900
     25 CBA          7.5770     0.1670     4.3260 ca         1 906       0.169100
     26 CBB         19.8350     5.9760     1.5260 ca         1 906      -0.016400
     27 CBC         12.2670     0.2220     3.0150 c3         1 906       0.018300
     28 NBD         16.2460     1.4020     1.9970 n          1 906      -0.617800
     29 NBE         17.1460     3.2220     1.0360 n          1 906      -0.223000
     30 HAA         -0.3610     0.8840     0.5110 hc         1 906       0.045033
     31 HAAA        -0.3610    -0.8850     0.5100 hc         1 906       0.045033
     32 HAAB        -0.3610     0.0000    -1.0210 hc         1 906       0.045033
     33 HAB         11.4810     2.2040     2.7450 hc         1 906       0.068367
     34 HABA        13.1040     1.9680     2.0830 hc         1 906       0.068367
     35 HABB        11.7000     1.2970     1.2420 hc         1 906       0.068367
     36 HNAC        23.7710     6.3460     0.3100 hn         1 906       0.438300
     37 HNAA        23.0990     7.1230    -1.0860 hn         1 906       0.438300
     38 HAE          3.3620    -0.0010     3.5190 h4         1 906      -0.052200
     39 HAF         19.8930     9.3470     1.6850 h4         1 906       0.032100
     40 HAG         18.4840     7.4430     2.3460 ha         1 906       0.152000
     41 HAH          4.5150     0.1400     5.7570 ha         1 906       0.154500
     42 HAI          5.5830     0.1040     1.5960 ha         1 906       0.154500
     43 HAJ          6.8990     0.1820     6.3620 ha         1 906       0.144000
     44 HAK          7.9650     0.1470     2.2150 ha         1 906       0.144000
     45 HAL         21.4000     4.8160     0.6080 ha         1 906       0.151000
     46 HAM          1.8920     0.8850    -0.5110 h1         1 906       0.032700
     47 HAMA         1.8920    -0.8850    -0.5110 h1         1 906       0.032700
     48 HAN          9.7060    -0.7020     2.9940 h1         1 906       0.044200
     49 HANA         9.6790     1.0670     2.9720 h1         1 906       0.044200
     50 HAO         11.3860     1.1140     4.7610 hc         1 906       0.068200
     51 HAOA        11.4130    -0.6550     4.7810 hc         1 906       0.068200
     52 HAP         14.2160     0.1470     4.5280 hc         1 906       0.132200
     53 HAPA        13.1160     1.0400     3.4680 hc         1 906       0.132200
     54 HAQ         14.6140     0.8710     1.7960 h1         1 906       0.123700
     55 HAQA        14.4680    -0.8910     1.8610 h1         1 906       0.123700
     56 HAR         18.1240     0.5430     2.0420 h1         1 906       0.062200
     57 HARA        17.6000     1.5960     3.5450 h1         1 906       0.062200
     58 HAS         18.5810     3.3580     2.5760 h1         1 906       0.097700
     59 HASA        19.0720     2.3730     1.1700 h1         1 906       0.097700
     60 HBC         12.0800    -0.6260     2.3670 hc         1 906       0.055700
     61 OAD         14.9950     2.6960     0.6540 o          1 906      -0.685500
     62 NAC         22.9950     6.7770    -0.1520 nv         1 906      -1.058500
@<TRIPOS>BOND
     1     1    11 1
     2     2    27 1
     3    62    23 1
     4    61    22 2
     5     3    18 2
     6     3    24 1
     7     4     5 ar
     8     4    19 ar
     9     5    26 ar
    10     6     8 ar
    11     6    24 ar
    12     7     9 ar
    13     7    24 ar
    14     8    25 ar
    15     9    25 ar
    16    10    23 ar
    17    10    26 ar
    18    11    20 1
    19    12    13 1
    20    12    21 1
    21    13    27 1
    22    14    15 1
    23    14    27 1
    24    15    28 1
    25    16    17 1
    26    16    28 1
    27    17    29 1
    28    18    20 1
    29    19    23 ar
    30    21    25 1
    31    22    28 1
    32    22    29 1
    33    26    29 1
    34     1    30 1
    35     1    31 1
    36     1    32 1
    37     2    33 1
    38     2    34 1
    39     2    35 1
    40    62    36 1
    41    62    37 1
    42     3    38 1
    43     4    39 1
    44     5    40 1
    45     6    41 1
    46     7    42 1
    47     8    43 1
    48     9    44 1
    49    10    45 1
    50    11    46 1
    51    11    47 1
    52    12    48 1
    53    12    49 1
    54    13    50 1
    55    13    51 1
    56    14    52 1
    57    14    53 1
    58    15    54 1
    59    15    55 1
    60    16    56 1
    61    16    57 1
    62    17    58 1
    63    17    59 1
    64    27    60 1
@<TRIPOS>SUBSTRUCTURE
     1 906         1 TEMP              0 ****  ****    0 ROOT
