@<TRIPOS>MOLECULE
906
   63    58     1     0     0
SMALL
bcc


@<TRIPOS>ATOM
      1 CAA         4.2970   -2.6820   -2.6680 c1        1 906     -0.045000
      2 CAB        13.4690    3.0060    7.4620 c3        1 906     -0.216000
      3 CAE         6.9120    1.2510    0.1940 c2        1 906     -0.211000
      4 CAF        15.9320    3.6010    1.7320 c1        1 906     -0.046000
      5 CAG        16.2870    4.7880    1.8580 c1        1 906     -0.632000
      6 CAH         8.7990    2.0640    1.5780 c3        1 906     -0.204000
      7 CAI         7.1880    0.4460    2.5480 c2        1 906     -0.201000
      8 CAJ         9.4500    2.1060    2.8850 c2        1 906      0.015000
      9 CAK         7.8980    0.4490    3.7520 c2        1 906      0.089000
     10 CAL        17.5610    6.7690    1.2160 c2        1 906     -0.370000
     11 CAM         3.9900   -0.7600   -0.0130 c3        1 906     -0.088000
     12 CAN        11.0400    1.4600    5.0980 c2        1 906     -0.089000
     13 CAO        11.6210    1.9530    6.2000 c2        1 906     -0.158000
     14 CAP        13.8420    0.8370    6.2930 c3        1 906     -0.240000
     15 CAQ        13.7620    0.0810    5.0660 c1        1 906     -0.085000
     16 CAR        15.1500    0.4700    1.7980 c3        1 906     -0.129000
     17 CAS        13.3050    1.5830   -1.1590 c1        1 906      0.204000
     18 NAT         5.8300    0.6500   -0.2370 n2        1 906      0.089000
     19 NAU        18.6350    5.7020   -0.8280 n2        1 906     -0.243000
     20 OAV         5.1850   -0.1370    0.5600 os        1 906     -0.208000
     21 OAW         9.6560    1.2200    5.1440 os        1 906     -0.156000
     22 CAX        12.8020    1.0660    1.3260 c2        1 906      0.466000
     23 CAY        18.1790    6.1730    0.1450 c1        1 906      0.305000
     24 CAZ         7.5950    1.2220    1.4700 c2        1 906      0.116000
     25 CBA         9.0380    1.2730    3.9050 c2        1 906     -0.012000
     26 CBB        16.6590    6.0820    2.0180 c2        1 906      0.254000
     27 CBC        13.0960    2.1680    6.2550 c3        1 906     -0.063000
     28 NBD        13.7620    0.5500    2.1540 n         1 906     -0.329000
     29 NBE        13.0840    1.3290   -0.0230 n2        1 906     -0.370000
     30 HAA         3.2360    0.0260   -0.2500 h1        1 906      0.123000
     31 HAAA        5.1970   -3.0980   -3.1450 ha        1 906      0.029500
     32 HAAB        3.3810   -2.9440   -3.2170 ha        1 906      0.029500
     33 HAB        12.9160    3.9760    7.4450 hc        1 906      0.084667
     34 HABA       13.2160    2.4710    8.4100 hc        1 906      0.084667
     35 HABB       14.5640    3.2210    7.4570 hc        1 906      0.084667
     36 HNAC       19.9740    3.3600   -2.6820 hn        1 906      0.161000
     37 HNAA       20.3570    4.7390   -3.4620 hn        1 906      0.161000
     38 HAE         7.3680    1.8990   -0.5890 h4        1 906      0.185000
     39 HAF        19.2380    5.2000   -1.4680 hn        1 906      0.385000
     40 HAG        16.2200    6.6600    2.8590 ha        1 906      0.125000
     41 HAH         8.5960    3.1090    1.1940 hc        1 906      0.225000
     42 HAI         7.5760   -0.1860    4.5990 ha        1 906      0.188000
     43 HAJ         9.6070    1.6470    0.8650 hc        1 906      0.225000
     44 HAK         6.2920   -0.1970    2.4690 ha        1 906      0.193000
     45 HAL        17.8130    7.8220    1.4120 ha        1 906      0.174000
     46 HAM         3.6560   -1.4060    0.8360 h1        1 906      0.123000
     47 HAMA        4.2550   -1.3690   -0.9200 h1        1 906      0.123000
     48 HAN        12.4050    3.7150    3.3570 ha        1 906      0.002000
     49 HANA       12.5450    3.1030    3.1000 ha        1 906      0.002000
     50 HAO        10.3320    2.7690    2.9970 ha        1 906      0.205000
     51 HAOA       11.5560    1.1700    4.1660 h4        1 906      0.183000
     52 HAP        13.5130    0.2490    7.1970 hc        1 906      0.137500
     53 HAPA       11.0390    2.2150    7.0970 ha        1 906      0.150000
     54 HAQ        14.9490    1.0480    6.4420 hc        1 906      0.137500
     55 HAQA       14.0790   -0.9720    5.1290 ha        1 906      0.060000
     56 HAR        15.6930   -0.0330    2.6420 h1        1 906      0.108333
     57 HARA       13.5320    0.5080    3.1460 hn        1 906      0.292000
     58 HAS        15.2830   -0.1460    0.8710 h1        1 906      0.108333
     59 HASA       15.5920    1.5030    1.6360 h1        1 906      0.108333
     60 HBC        13.4110    2.7200    5.3200 hc        1 906      0.120000
     61 HAC3       21.2590    4.2390   -2.2000 hn        1 906      0.161000
     62 OAD        11.6200    1.2660    1.7330 o         1 906     -0.501000
     63 NAC        20.3330    4.2860   -2.5720 n3        1 906     -0.419000
@<TRIPOS>BOND
     1    1   31 1   
     2    1   32 1   
     3    2   27 1   
     4    2   33 1   
     5    2   34 1   
     6    2   35 1   
     7    3   18 1   
     8    3   24 1   
     9    3   38 1   
    10    4    5 1   
    11    5   26 1   
    12    6    8 1   
    13    6   24 1   
    14    6   41 1   
    15    6   43 1   
    16    7    9 1   
    17    7   24 1   
    18    7   44 1   
    19    8   25 1   
    20    8   50 1   
    21    9   25 1   
    22    9   42 1   
    23   10   23 1   
    24   10   26 1   
    25   10   45 1   
    26   11   20 1   
    27   11   30 1   
    28   11   46 1   
    29   11   47 1   
    30   12   13 1   
    31   12   21 1   
    32   12   51 1   
    33   13   27 1   
    34   13   53 1   
    35   14   15 1   
    36   14   27 1   
    37   14   52 1   
    38   14   54 1   
    39   15   55 1   
    40   16   28 1   
    41   16   56 1   
    42   16   58 1   
    43   16   59 1   
    44   17   29 1   
    45   18   20 1   
    46   19   23 1   
    47   19   39 1   
    48   21   25 1   
    49   22   28 1   
    50   22   29 1   
    51   22   62 1   
    52   26   40 1   
    53   27   60 1   
    54   28   57 1   
    55   36   63 1   
    56   37   63 1   
    57   48   49 1   
    58   61   63 1   
@<TRIPOS>SUBSTRUCTURE
     1 906         1 TEMP              0 ****  ****    0 ROOT
