@<TRIPOS>MOLECULE
907
   35    37     1     0     0
SMALL
bcc


@<TRIPOS>ATOM
      1 C1         -0.0200   -0.0330   -0.0160 ca        1 907     -0.295900
      2 C2          1.2380   -0.6770    0.0220 ca        1 907     -0.121000
      3 C3          1.8740   -0.9410    1.2240 ca        1 907     -0.144000
      4 C4          1.2460   -0.5470    2.4130 ca        1 907      0.034000
      5 C5         -0.0590    0.1290    2.3860 ca        1 907     -0.040000
      6 C6         -0.6680    0.3700    1.1680 ca        1 907     -0.082000
      7 C7         -0.6680    0.2180   -1.3050 ce        1 907      0.530400
      8 N1          0.0930    0.5440   -2.3860 nh        1 907     -0.501100
      9 N2         -2.0210    0.1170   -1.4020 nh        1 907     -0.485200
     10 N3          1.6270   -0.6660    3.7320 na        1 907     -0.234600
     11 CN4        -0.4120    0.3950    3.7400 cc        1 907     -0.264000
     12 C8          0.6260   -0.0990    4.5720 cc        1 907      0.150900
     13 C1'         0.7250   -0.0780    5.9900 cd        1 907     -0.330200
     14 C2'         1.9000   -0.4940    6.6500 cd        1 907     -0.021000
     15 C3'         2.0150   -0.4970    8.0210 cc        1 907     -0.222200
     16 CV'         3.2520   -0.9300    8.7070 c3        1 907     -0.022900
     17 C4'         0.9090   -0.0660    8.8030 cc        1 907     -0.027000
     18 C5'        -0.2500    0.3530    8.2210 cd        1 907     -0.180500
     19 C6'        -0.4210    0.3850    6.7650 c         1 907      0.601500
     20 O6'        -1.4850    0.7800    6.2330 o         1 907     -0.656100
     21 BR5'       -1.6580    0.9070    9.3390 br        1 907     -0.114700
     22 HC2         1.7170   -1.0190   -0.9070 ha        1 907      0.116000
     23 HC3         2.8450   -1.4540    1.2400 ha        1 907      0.141000
     24 HC6        -1.6280    0.9060    1.1500 ha        1 907      0.132000
     25 HH11        1.0770    0.6320   -2.2590 hn        1 907      0.311700
     26 HH12       -0.2840    0.6750   -3.2940 hn        1 907      0.311700
     27 HH21       -2.5340   -0.1390   -0.5850 hn        1 907      0.311700
     28 HH22       -2.5240    0.3470   -2.2250 hn        1 907      0.311700
     29 HN3         2.4590   -1.0900    4.0500 hn        1 907      0.302700
     30 HCN4       -1.3160    0.8830    4.1020 ha        1 907      0.206000
     31 HC2'        2.7740   -0.8230    6.0660 ha        1 907      0.085000
     32 H32'        3.0410   -1.7920    9.3880 hc        1 907      0.024033
     33 H33'        4.0350   -1.2460    7.9750 hc        1 907      0.024033
     34 H34'        3.6690   -0.0960    9.3260 hc        1 907      0.024033
     35 HC4'        1.0240   -0.0820    9.9000 ha        1 907      0.123000
@<TRIPOS>BOND
     1    1    2 ar  
     2    1    6 ar  
     3    1    7 1   
     4    2    3 ar  
     5    2   22 1   
     6    3    4 ar  
     7    3   23 1   
     8    4    5 ar  
     9    4   10 2   
    10    5    6 ar  
    11    5   11 2   
    12    6   24 1   
    13    7    8 2   
    14    7    9 1   
    15    8   25 1   
    16    8   26 1   
    17    9   27 1   
    18    9   28 1   
    19   10   12 1   
    20   10   29 1   
    21   11   12 1   
    22   11   30 1   
    23   12   13 2   
    24   13   14 1   
    25   13   19 1   
    26   14   15 2   
    27   14   31 1   
    28   15   16 1   
    29   15   17 1   
    30   16   32 1   
    31   16   33 1   
    32   16   34 1   
    33   17   18 2   
    34   17   35 1   
    35   18   19 1   
    36   18   21 1   
    37   19   20 2   
@<TRIPOS>SUBSTRUCTURE
     1 907         1 TEMP              0 ****  ****    0 ROOT
