@<TRIPOS>MOLECULE
molecule
   36    38     1     0     0
SMALL
bcc


@<TRIPOS>ATOM
      1 C1           0.0000     0.0000     0.0000 ca         1 907      -0.134900
      2 C2           1.4010     0.0000     0.0000 ca         1 907      -0.105000
      3 C3           2.0970     0.0000     1.1730 ca         1 907      -0.113000
      4 C4           1.4210    -0.0020     2.3910 ca         1 907       0.074000
      5 C5           0.0110    -0.0020     2.4050 ca         1 907      -0.050000
      6 C6          -0.6970    -0.0010     1.2030 ca         1 907      -0.119000
      7 C7          -0.7390     0.0010    -1.2810 ce         1 907       0.105800
      8 N1          -0.0720     0.0030    -2.4340 nz         1 907      -0.681600
      9 N2          -2.0710     0.0010    -1.2820 nv         1 907      -0.500100
     10 N3           1.8440    -0.0030     3.7000 na         1 907      -0.187600
     11 CN4         -0.3860    -0.0090     3.8130 cc         1 907      -0.176000
     12 C8           0.7570    -0.0030     4.5430 cc         1 907       0.021900
     13 C1'          0.8240    -0.0040     6.0200 cd         1 907      -0.038000
     14 C2'          1.7830    -0.7770     6.6770 cd         1 907      -0.138000
     15 C3'          1.8370    -0.7790     8.0560 cc         1 907      -0.020200
     16 CV'          2.8700    -1.6170     8.7650 c3         1 907      -0.062900
     17 C4'          0.9520    -0.0090     8.7910 cc         1 907      -0.090000
     18 C5'          0.0010     0.7640     8.1500 cd         1 907      -0.047300
     19 C6'         -0.0700     0.7720     6.7650 c          1 907       0.436100
     20 O6'         -1.0040     1.5310     6.1350 o          1 907      -0.526100
     21 Br5'        -1.2040     1.8110     9.1630 br         1 907       0.002300
     22 HC2          1.9370     0.0010    -0.9410 ha         1 907       0.110000
     23 HC3          3.1800     0.0000     1.1570 ha         1 907       0.151000
     24 HC6         -1.7810    -0.0010     1.2080 ha         1 907       0.142000
     25 HH11         0.5070     0.8180    -2.4850 hn         1 907       0.444467
     26 HH12        -0.7210     0.0080    -3.1960 hn         1 907       0.444467
     27 HH21        -2.5700     0.0020    -2.1500 hn         1 907       0.307200
     28 HH22        -2.5720    -0.0000    -0.4160 hn         1 907       0.307200
     29 HN3          2.8000     0.0010     3.9950 hn         1 907       0.315700
     30 HCN4        -1.3980    -0.0100     4.1980 ha         1 907       0.195000
     31 HC2'         2.5180    -1.3310     6.1050 ha         1 907       0.139000
     32 H32'         2.9920    -2.5580     8.2430 hc         1 907       0.061700
     33 H33'         2.5450    -1.8070     9.7810 hc         1 907       0.061700
     34 H34'         3.8150    -1.0880     8.7810 hc         1 907       0.061700
     35 HC4'         1.0050    -0.0110     9.8730 ha         1 907       0.164000
     36 H13          0.5010    -0.8160    -2.4900 hn         1 907       0.444467
@<TRIPOS>BOND
     1     1     2 ar  
     2     1     6 ar  
     3     1     7 1   
     4     2     3 ar  
     5     2    22 1   
     6     3     4 ar  
     7     3    23 1   
     8     4     5 ar  
     9     4    10 2   
    10     5     6 ar  
    11     5    11 2   
    12     6    24 1   
    13     7     8 1   
    14     7     9 2   
    15     8    25 1   
    16     8    26 1   
    17     9    27 1   
    18     9    28 1   
    19    10    12 1   
    20    10    29 1   
    21    11    12 1   
    22    11    30 1   
    23    12    13 2   
    24    13    14 1   
    25    13    19 1   
    26    14    15 2   
    27    14    31 1   
    28    15    16 1   
    29    15    17 1   
    30    16    32 1   
    31    16    33 1   
    32    16    34 1   
    33    17    18 2   
    34    17    35 1   
    35    18    19 1   
    36    18    21 1   
    37    19    20 2   
    38    36     8 1   
@<TRIPOS>SUBSTRUCTURE
     1 907         1 TEMP              0 ****  ****    0 ROOT
