@<TRIPOS>MOLECULE
908
   66    69     1     0     0
SMALL
bcc


@<TRIPOS>ATOM
      1 O3           0.0000     0.0000     0.0000 o          1 908      -0.645500
      2 C20          1.2130     0.0000     0.0000 c          1 908       0.615500
      3 N3           1.9110     0.0000     1.1610 n          1 908       0.077200
      4 C17          1.2050    -0.0880     2.4420 c3         1 908       0.035700
      5 C19          1.6640    -1.3400     3.1920 c3         1 908      -0.011600
      6 C18          1.5170     1.1520     3.2810 c3         1 908      -0.011600
      7 N2           3.3090     0.0840     1.1320 n2         1 908      -0.515300
      8 C21          1.9880    -0.0050    -1.2890 c3         1 908      -0.120700
      9 C26          3.2440    -0.8670    -1.1020 c3         1 908      -0.108000
     10 C25          2.8110    -2.2940    -0.7450 c3         1 908       0.022800
     11 C24          1.7300    -2.7770    -1.6600 c2         1 908      -0.171200
     12 C23          1.0000    -2.0060    -2.3990 c2         1 908      -0.130200
     13 C22          1.1550    -0.5160    -2.4510 c3         1 908       0.036800
     14 C16          3.9860    -0.3110     0.0980 ce         1 908       0.402900
     15 C4           5.4570    -0.2240     0.0930 ca         1 908      -0.165900
     16 C3           6.1800    -0.6510    -1.0260 ca         1 908      -0.032000
     17 C2           7.5560    -0.5720    -1.0340 ca         1 908      -0.211000
     18 C5           6.1300     0.2880     1.2020 ca         1 908      -0.012000
     19 C6           7.5190     0.3670     1.1910 cp         1 908      -0.113000
     20 C1           8.2330    -0.0690     0.0670 ca         1 908       0.178100
     21 O            9.5880     0.0070     0.0540 os         1 908      -0.310900
     22 C           10.2520    -0.4560    -1.1240 c3         1 908       0.241700
     23 C7           8.2420     0.9110     2.3640 cp         1 908       0.041000
     24 C12          7.8540     2.1320     2.9180 ca         1 908      -0.096500
     25 C11          8.5230     2.6380     4.0090 ca         1 908      -0.049000
     26 C10          9.5930     1.9280     4.5620 ca         1 908      -0.191600
     27 C9           9.9810     0.7060     4.0070 ca         1 908      -0.049000
     28 C8           9.3060     0.1990     2.9200 ca         1 908      -0.096500
     29 C13         10.3130     2.4700     5.7320 c          1 908       0.626700
     30 O1           9.9760     3.5340     6.2140 o          1 908      -0.630100
     31 N           11.3440     1.7860     6.2660 ns         1 908      -0.237900
     32 C14         12.0580     2.3230     7.4260 c3         1 908       0.005000
     33 C15         13.1590     1.3740     7.8230 c          1 908       0.304100
     34 O2          13.3290     0.3490     7.1980 o          1 908      -0.398100
     35 N1          13.9520     1.6630     8.8720 nz         1 908       0.202600
     36 H1           0.1380    -0.1450     2.2640 h1         1 908       0.070700
     37 H2           1.1460    -1.4030     4.1410 hc         1 908       0.011533
     38 H3           2.7320    -1.2850     3.3670 hc         1 908       0.011533
     39 H4           1.4400    -2.2180     2.5990 hc         1 908       0.011533
     40 H5           0.8080     1.2240     4.0980 hc         1 908       0.011533
     41 H6           1.4420     2.0370     2.6600 hc         1 908       0.011533
     42 H7           2.5210     1.0750     3.6800 hc         1 908       0.011533
     43 H8           2.2970     1.0100    -1.5090 hc         1 908       0.047700
     44 H9           3.8660    -0.8540    -1.9890 hc         1 908       0.056700
     45 H10          2.4440    -2.3070     0.2740 hc         1 908       0.026700
     46 H11          3.6660    -2.9540    -0.8290 hc         1 908       0.026700
     47 H12          1.5460    -3.8430    -1.7070 ha         1 908       0.103000
     48 H14          0.2340    -2.4620    -3.0140 ha         1 908       0.105000
     49 H16          0.1740    -0.0570    -2.4110 hc         1 908       0.036700
     50 H17          1.6410    -0.2440    -3.3810 hc         1 908       0.036700
     51 H18          5.6570    -1.0420    -1.8900 ha         1 908       0.116000
     52 H19          8.1100    -0.9030    -1.9040 ha         1 908       0.128000
     53 H20          5.5810     0.5390     2.1010 ha         1 908       0.131000
     54 H21          9.9240     0.1270    -1.9760 h1         1 908       0.002367
     55 H22         11.3230    -0.3450    -1.0020 h1         1 908       0.002367
     56 H23         10.0130    -1.5000    -1.2870 h1         1 908       0.002367
     57 H24          7.0250     2.6820     2.4890 ha         1 908       0.123500
     58 H25          8.2210     3.5850     4.4380 ha         1 908       0.108500
     59 H26         10.8080     0.1550     4.4370 ha         1 908       0.108500
     60 H27          9.6070    -0.7480     2.4890 ha         1 908       0.123500
     61 H28         11.6210     0.9090     5.8700 hn         1 908       0.215500
     62 H29         12.4860     3.2860     7.1720 h1         1 908       0.062700
     63 H30         11.3680     2.4420     8.2520 h1         1 908       0.062700
     64 H31         13.3940     1.7580     9.6970 hn         1 908       0.250467
     65 H32         14.4380     2.5210     8.6970 hn         1 908       0.250467
     66 H13         14.6160     0.9250     9.0020 hn         1 908       0.250467
@<TRIPOS>BOND
     1     1     2 2   
     2     2     3 1   
     3     2     8 1   
     4     3     4 1   
     5     3     7 1   
     6     4     5 1   
     7     4     6 1   
     8     4    36 1   
     9     5    37 1   
    10     5    38 1   
    11     5    39 1   
    12     6    40 1   
    13     6    41 1   
    14     6    42 1   
    15     7    14 2   
    16     8     9 1   
    17     8    13 1   
    18     8    43 1   
    19     9    10 1   
    20     9    14 1   
    21     9    44 1   
    22    10    11 1   
    23    10    45 1   
    24    10    46 1   
    25    11    12 2   
    26    11    47 1   
    27    12    13 1   
    28    12    48 1   
    29    13    49 1   
    30    13    50 1   
    31    14    15 1   
    32    15    16 ar  
    33    15    18 ar  
    34    16    17 ar  
    35    16    51 1   
    36    17    20 ar  
    37    17    52 1   
    38    18    19 ar  
    39    18    53 1   
    40    19    20 ar  
    41    19    23 1   
    42    20    21 1   
    43    21    22 1   
    44    22    54 1   
    45    22    55 1   
    46    22    56 1   
    47    23    24 ar  
    48    23    28 ar  
    49    24    25 ar  
    50    24    57 1   
    51    25    26 ar  
    52    25    58 1   
    53    26    27 ar  
    54    26    29 1   
    55    27    28 ar  
    56    27    59 1   
    57    28    60 1   
    58    29    30 2   
    59    29    31 1   
    60    31    32 1   
    61    31    61 1   
    62    32    33 1   
    63    32    62 1   
    64    32    63 1   
    65    33    34 2   
    66    33    35 1   
    67    35    64 1   
    68    35    65 1   
    69    35    66 1   
@<TRIPOS>SUBSTRUCTURE
     1 908         1 TEMP              0 ****  ****    0 ROOT
