@<TRIPOS>MOLECULE
90A
   45    44     1     0     0
SMALL
bcc


@<TRIPOS>ATOM
      1 C1           0.0000     0.0000     0.0000 c3         1 90A       0.047000
      2 C2           1.5310     0.0000     0.0000 c3         1 90A       0.196400
      3 C3          -1.8140     0.0010     1.6270 c          1 90A       0.567100
      4 C4           3.4300    -1.3240     0.6170 c3         1 90A       0.209400
      5 C5           3.8250    -2.6650     1.2410 c3         1 90A       0.208400
      6 O4          -2.6020     0.0010     0.7050 o          1 90A      -0.655100
      7 C6          -2.3160     0.0000     3.0490 c3         1 90A      -0.067100
      8 N1          -0.4880     0.0000     1.3810 ns         1 90A      -0.192900
      9 O3           2.0060    -1.2220     0.5690 os         1 90A      -0.410600
     10 O6           3.3970    -3.7310     0.3910 os         1 90A      -0.392600
     11 C7           3.7180    -5.0320     0.8850 c3         1 90A       0.208400
     12 C8           3.2150    -6.0900    -0.1000 c3         1 90A       0.206400
     13 O9           3.9260    -5.9670    -1.3340 os         1 90A      -0.387600
     14 C10          3.5320    -6.9140    -2.3280 c3         1 90A       0.205400
     15 C11          4.3540    -6.6910    -3.5990 c3         1 90A       0.209400
     16 O12          5.7290    -6.9750    -3.3320 os         1 90A      -0.427600
     17 C13          6.5890    -6.7970    -4.4610 c3         1 90A       0.213400
     18 C14          8.0280    -7.1260    -4.0610 c3         1 90A      -0.137400
     19 C15          8.9350    -6.9400    -5.2500 c          1 90A       0.984600
     20 O16          8.4760    -6.5780    -6.3090 o          1 90A      -0.905800
     21 H1          -0.3610     0.8850    -0.5110 h1         1 90A       0.033700
     22 H2          -0.3610    -0.8850    -0.5110 h1         1 90A       0.033700
     23 H3           1.8920     0.8360     0.5860 h1         1 90A      -0.003800
     24 H4           1.8920     0.0890    -1.0170 h1         1 90A      -0.003800
     25 H5           3.8310    -0.5150     1.2160 h1         1 90A      -0.001800
     26 H6           3.8310    -1.2620    -0.3880 h1         1 90A      -0.001800
     27 H7           3.3520    -2.7650     2.2110 h1         1 90A      -0.006800
     28 H8           4.9010    -2.7060     1.3580 h1         1 90A      -0.006800
     29 H9          -3.3990     0.0340     3.0490 hc         1 90A       0.019700
     30 H10         -1.9820    -0.9010     3.5490 hc         1 90A       0.019700
     31 H11         -1.9270     0.8670     3.5690 hc         1 90A       0.019700
     32 H12          0.1620     0.0320     2.1410 hn         1 90A       0.177500
     33 H13          3.2420    -5.1800     1.8470 h1         1 90A      -0.006300
     34 H14          4.7910    -5.1230     0.9960 h1         1 90A      -0.006300
     35 H15          2.1570    -5.9440    -0.2780 h1         1 90A      -0.008800
     36 H16          3.3790    -7.0770     0.3150 h1         1 90A      -0.008800
     37 H17          2.4800    -6.7860    -2.5520 h1         1 90A      -0.014300
     38 H18          3.7030    -7.9180    -1.9590 h1         1 90A      -0.014300
     39 H19          3.9950    -7.3490    -4.3820 h1         1 90A      -0.008300
     40 H20          4.2530    -5.6610    -3.9180 h1         1 90A      -0.008300
     41 H21          6.2760    -7.4560    -5.2610 h1         1 90A      -0.002300
     42 H22          6.5340    -5.7690    -4.7980 h1         1 90A      -0.002300
     43 H23          8.3410    -6.4660    -3.2610 hc         1 90A       0.012200
     44 H24          8.0830    -8.1540    -3.7240 hc         1 90A       0.012200
     45 O1          10.2520    -7.1720    -5.1340 o          1 90A      -0.905800
@<TRIPOS>BOND
     1     1     2 1   
     2     1     8 1   
     3     1    21 1   
     4     1    22 1   
     5     2     9 1   
     6     2    23 1   
     7     2    24 1   
     8     3     6 2   
     9     3     7 1   
    10     3     8 1   
    11     4     5 1   
    12     4     9 1   
    13     4    25 1   
    14     4    26 1   
    15     5    10 1   
    16     5    27 1   
    17     5    28 1   
    18     7    29 1   
    19     7    30 1   
    20     7    31 1   
    21     8    32 1   
    22    10    11 1   
    23    11    12 1   
    24    11    33 1   
    25    11    34 1   
    26    12    13 1   
    27    12    35 1   
    28    12    36 1   
    29    13    14 1   
    30    14    15 1   
    31    14    37 1   
    32    14    38 1   
    33    15    16 1   
    34    15    39 1   
    35    15    40 1   
    36    16    17 1   
    37    17    18 1   
    38    17    41 1   
    39    17    42 1   
    40    18    19 1   
    41    18    43 1   
    42    18    44 1   
    43    19    20 1   
    44    19    45 1   
@<TRIPOS>SUBSTRUCTURE
     1 90A         1 TEMP              0 ****  ****    0 ROOT
