@<TRIPOS>MOLECULE
molecule
   56    59     1     0     0
SMALL
bcc


@<TRIPOS>ATOM
      1 CAT          0.0000     0.0000     0.0000 c3         1 90B      -0.092900
      2 CAU          1.5310     0.0000     0.0000 c3         1 90B       0.160800
      3 NAV          2.0210     0.0000     1.3830 n7         1 90B      -0.822200
      4 CAW          1.5880     1.2060     2.1000 c3         1 90B       0.160800
      5 CAX          0.0590     1.2440     2.1630 c3         1 90B      -0.092900
      6 CAS         -0.5050     1.2420     0.7400 c3         1 90B       0.116700
      7 NAR         -1.9680     1.2180     0.7930 ns         1 90B      -0.578900
      8 CAQ         -2.6580     2.3700     0.9200 c          1 90B       0.674700
      9 OAY         -2.0640     3.4280     0.9900 o          1 90B      -0.600100
     10 CAP         -4.1350     2.3460     0.9740 ca         1 90B      -0.122600
     11 CAZ         -4.8500     3.5360     1.1000 ca         1 90B      -0.066000
     12 CAO         -4.8190     1.1310     0.8950 ca         1 90B      -0.105000
     13 CAM         -6.1990     1.1110     0.9460 ca         1 90B      -0.006900
     14 Br          -7.1220    -0.5350     0.8400 br         1 90B      -0.086100
     15 CAL         -6.9080     2.2920     1.0760 ca         1 90B      -0.128000
     16 CAK         -6.2350     3.5060     1.1510 ca         1 90B       0.147600
     17 NAJ         -6.9560     4.6970     1.2760 nu         1 90B      -0.741300
     18 CAI         -6.4160     5.8820     0.8200 cc         1 90B       0.726300
     19 SBA         -7.1130     7.4250     1.0560 ss         1 90B      -0.230300
     20 NAH         -5.3020     5.9820     0.1550 nd         1 90B      -0.758000
     21 CAG         -4.9240     7.1820    -0.2070 cd         1 90B       0.494200
     22 CAF         -5.7800     8.1750     0.1820 cc         1 90B      -0.256000
     23 CAE         -5.6160     9.6040    -0.0780 c          1 90B       0.712700
     24 OBB         -4.6460    10.0030    -0.6990 o          1 90B      -0.572100
     25 NAD         -6.5380    10.4800     0.3680 ns         1 90B      -0.482100
     26 CAC         -6.4440    11.8330     0.0200 ca         1 90B       0.056600
     27 CAB         -5.2550    12.5240     0.2280 ca         1 90B       0.041400
     28 Cl          -3.8860    11.7120     0.9210 cl         1 90B      -0.077400
     29 CBG         -5.1660    13.8590    -0.1160 ca         1 90B      -0.118000
     30 CBF         -6.2560    14.5070    -0.6670 ca         1 90B      -0.123000
     31 CBE         -7.4390    13.8210    -0.8770 ca         1 90B      -0.120000
     32 CBC         -7.5330    12.4850    -0.5390 ca         1 90B      -0.088300
     33 CBD         -8.8210    11.7380    -0.7730 c3         1 90B      -0.045800
     34 H1          -0.3610    -0.8900     0.5020 hc         1 90B       0.055700
     35 H2          -0.3610     0.0170    -1.0210 hc         1 90B       0.055700
     36 H3           1.8900    -0.8860    -0.5090 h1         1 90B       0.035200
     37 H4           1.8900     0.8860    -0.5090 h1         1 90B       0.035200
     38 H5           3.0210    -0.0470     1.3830 hn         1 90B       0.355800
     39 H7           1.9880     1.1900     3.1070 h1         1 90B       0.035200
     40 H8           1.9480     2.0840     1.5770 h1         1 90B       0.035200
     41 H9          -0.3010     0.3720     2.6940 hc         1 90B       0.055700
     42 H10         -0.2580     2.1440     2.6750 hc         1 90B       0.055700
     43 H11         -0.1710     2.1310     0.2190 h1         1 90B       0.079700
     44 H12         -2.4570     0.3480     0.7250 hn         1 90B       0.315500
     45 H13         -4.3240     4.4810     1.1580 ha         1 90B       0.198000
     46 H14         -4.2680     0.2060     0.7700 ha         1 90B       0.140000
     47 H15         -7.9900     2.2710     1.1160 ha         1 90B       0.145000
     48 H16         -7.8540     4.6940     1.7190 hn         1 90B       0.465800
     49 H17         -4.0140     7.3710    -0.7650 h4         1 90B       0.075100
     50 H18         -7.2610    10.1720     0.9870 hn         1 90B       0.324500
     51 H19         -4.2410    14.3990     0.0460 ha         1 90B       0.147000
     52 H20         -6.1840    15.5550    -0.9350 ha         1 90B       0.137000
     53 H21         -8.2900    14.3310    -1.3110 ha         1 90B       0.136000
     54 H22         -9.2630    11.4730     0.1800 hc         1 90B       0.045367
     55 H23         -8.6180    10.8370    -1.3400 hc         1 90B       0.045367
     56 H24         -9.5080    12.3660    -1.3270 hc         1 90B       0.045367
@<TRIPOS>BOND
     1     4     5 1
     2     4     3 1
     3     1     6 1
     4     1     2 1
     5     6     5 1
     6     6     7 1
     7     3     2 1
     8     7     8 1
     9     9     8 2
    10     8    10 1
    11    11    10 ar
    12    11    16 ar
    13    10    12 ar
    14    17    16 1
    15    17    18 1
    16    16    15 ar
    17    20    18 2
    18    20    21 1
    19    12    13 ar
    20    18    19 1
    21    21    22 2
    22    15    13 ar
    23    13    14 1
    24    19    22 1
    25    22    23 1
    26    23    25 1
    27    23    24 2
    28    25    26 1
    29    33    32 1
    30    26    32 ar
    31    26    27 ar
    32    32    31 ar
    33    27    28 1
    34    27    29 ar
    35    31    30 ar
    36    29    30 ar
    37     1    34 1
    38     1    35 1
    39     2    36 1
    40     2    37 1
    41     3    38 1
    42     4    39 1
    43     4    40 1
    44     5    41 1
    45     5    42 1
    46     6    43 1
    47     7    44 1
    48    11    45 1
    49    12    46 1
    50    15    47 1
    51    17    48 1
    52    21    49 1
    53    25    50 1
    54    29    51 1
    55    30    52 1
    56    31    53 1
    57    33    54 1
    58    33    55 1
    59    33    56 1
@<TRIPOS>SUBSTRUCTURE
     1 90B         1 TEMP              0 ****  ****    0 ROOT
