@<TRIPOS>MOLECULE
90C
   70    73     1     0     0
SMALL
bcc


@<TRIPOS>ATOM
      1 C10          0.0000     0.0000     0.0000 ca         1 90C       0.026600
      2 C13          1.3840    -0.0110     2.4000 ca         1 90C      -0.069800
      3 C15          1.3910     0.0000     0.0000 ca         1 90C      -0.150000
      4 C17          2.0280     1.1440     4.5960 ca         1 90C      -0.053800
      5 C20          1.8510     3.3170     6.3060 ca         1 90C       0.121100
      6 C22          1.3600     2.0800     6.7050 ca         1 90C      -0.139000
      7 C24          2.8870    -1.0850     4.0210 ce         1 90C      -0.058400
      8 C26          5.1600    -0.5800     4.8740 c3         1 90C      -0.041400
      9 C01         -3.1680     2.2830    -5.0370 c3         1 90C      -0.005600
     10 C03         -1.2310     1.1740    -6.1580 c3         1 90C      -0.005600
     11 C05         -0.5710    -0.0690    -3.6530 c3         1 90C       0.143300
     12 C06          0.2290     0.0050    -2.3500 c3         1 90C       0.135800
     13 C08         -1.6150     1.1510    -1.2810 c3         1 90C       0.135800
     14 C09         -2.4160     1.0760    -2.5840 c3         1 90C       0.143300
     15 C11         -0.6970     0.0010     1.2030 ca         1 90C      -0.150000
     16 C12         -0.0120    -0.0050     2.3980 ca         1 90C      -0.061500
     17 C14          2.0820     0.0000     1.1910 ca         1 90C      -0.061500
     18 C16          2.1230    -0.0150     3.6820 cf         1 90C      -0.002400
     19 C18          2.5160     2.3900     4.1970 ca         1 90C      -0.073500
     20 C19          2.4260     3.4680     5.0500 ca         1 90C      -0.139000
     21 C23          1.4470     0.9970     5.8560 ca         1 90C      -0.073500
     22 C25          3.7500    -1.0330     5.2550 c3         1 90C       0.014800
     23 C27          5.9950    -0.3900     6.1410 c3         1 90C       0.225400
     24 C29          2.8730    -2.2920     3.1820 ca         1 90C      -0.043800
     25 C30          1.7030    -3.0480     3.0560 ca         1 90C      -0.093500
     26 C31          1.6980    -4.1800     2.2680 ca         1 90C      -0.100500
     27 C32          2.8480    -4.5690     1.6030 ca         1 90C      -0.102000
     28 C33          4.0100    -3.8270     1.7230 ca         1 90C      -0.100500
     29 C34          4.0300    -2.6890     2.5010 ca         1 90C      -0.093500
     30 N04         -1.4910     1.0750    -3.7250 n3         1 90C      -0.541600
     31 N07         -0.6970     0.0060    -1.2090 nh         1 90C      -0.364000
     32 O21          1.7640     4.3820     7.1440 oh         1 90C      -0.500100
     33 O28          7.3120     0.0340     5.7850 oh         1 90C      -0.594800
     34 H1           1.9310     0.0040    -0.9390 ha         1 90C       0.119000
     35 H2           0.9100     1.9660     7.6830 ha         1 90C       0.114500
     36 H4           5.1040     0.3580     4.3340 hc         1 90C       0.028700
     37 H5           5.6230    -1.3310     4.2450 hc         1 90C       0.028700
     38 H6          -3.4430     2.4940    -6.0630 hc         1 90C       0.009533
     39 H7          -4.0610     2.0720    -4.4600 hc         1 90C       0.009533
     40 H8          -2.6610     3.1430    -4.6150 hc         1 90C       0.009533
     41 H9          -2.7990     0.1660    -5.0880 h1         1 90C       0.006700
     42 H10         -0.8130     0.1940    -6.3560 hc         1 90C       0.009533
     43 H11         -0.4370     1.8550    -5.8770 hc         1 90C       0.009533
     44 H12         -1.7250     1.5430    -7.0490 hc         1 90C       0.009533
     45 H13          0.1090    -0.0390    -4.4950 h1         1 90C       0.019450
     46 H14         -1.1410    -0.9910    -3.6740 h1         1 90C       0.019450
     47 H15          0.8850    -0.8550    -2.2810 h1         1 90C       0.024700
     48 H16          0.8160     0.9150    -2.3390 h1         1 90C       0.024700
     49 H17         -1.0450     2.0720    -1.2610 h1         1 90C       0.024700
     50 H18         -2.2950     1.1210    -0.4380 h1         1 90C       0.024700
     51 H19         -3.0030     0.1650    -2.5940 h1         1 90C       0.019450
     52 H20         -3.0720     1.9360    -2.6530 h1         1 90C       0.019450
     53 H21         -1.7810     0.0030     1.2000 ha         1 90C       0.119000
     54 H22         -0.5560    -0.0090     3.3350 ha         1 90C       0.108000
     55 H23          3.1650    -0.0020     1.1900 ha         1 90C       0.108000
     56 H25          2.9650     2.5090     3.2190 ha         1 90C       0.111000
     57 H26          2.8060     4.4350     4.7420 ha         1 90C       0.114500
     58 H27          1.0640     0.0320     6.1670 ha         1 90C       0.111000
     59 H28          3.7960    -2.0180     5.7050 hc         1 90C       0.027200
     60 H29          3.3250    -0.3330     5.9640 hc         1 90C       0.027200
     61 H30          6.0510    -1.3280     6.6810 h1         1 90C      -0.016800
     62 H31          5.5320     0.3610     6.7700 h1         1 90C      -0.016800
     63 H32          0.8020    -2.7450     3.5760 ha         1 90C       0.111000
     64 H33          0.7920    -4.7660     2.1700 ha         1 90C       0.102000
     65 H34          2.8390    -5.4600     0.9870 ha         1 90C       0.101000
     66 H35          4.9050    -4.1370     1.1970 ha         1 90C       0.102000
     67 H36          4.9410    -2.1100     2.5940 ha         1 90C       0.111000
     68 H38          2.5390     4.4250     7.6790 ho         1 90C       0.401000
     69 H39          7.8270     0.1520     6.5660 ho         1 90C       0.389000
     70 C02         -2.2240     1.0800    -4.9980 c3         1 90C       0.130500
@<TRIPOS>BOND
     1     1     3 ar  
     2     1    15 ar  
     3     1    31 1   
     4     2    16 ar  
     5     2    17 ar  
     6     2    18 1   
     7     3    17 ar  
     8     3    34 1   
     9     4    18 1   
    10     4    19 ar  
    11     4    21 ar  
    12     5     6 ar  
    13     5    20 ar  
    14     5    32 1   
    15     6    21 ar  
    16     6    35 1   
    17     7    18 2   
    18     7    22 1   
    19     7    24 1   
    20     8    22 1   
    21     8    23 1   
    22     8    36 1   
    23     8    37 1   
    24     9    38 1   
    25     9    39 1   
    26     9    40 1   
    27     9    70 1   
    28    10    42 1   
    29    10    43 1   
    30    10    44 1   
    31    10    70 1   
    32    11    12 1   
    33    11    30 1   
    34    11    45 1   
    35    11    46 1   
    36    12    31 1   
    37    12    47 1   
    38    12    48 1   
    39    13    14 1   
    40    13    31 1   
    41    13    49 1   
    42    13    50 1   
    43    14    30 1   
    44    14    51 1   
    45    14    52 1   
    46    15    16 ar  
    47    15    53 1   
    48    16    54 1   
    49    17    55 1   
    50    19    20 ar  
    51    19    56 1   
    52    20    57 1   
    53    21    58 1   
    54    22    59 1   
    55    22    60 1   
    56    23    33 1   
    57    23    61 1   
    58    23    62 1   
    59    24    25 ar  
    60    24    29 ar  
    61    25    26 ar  
    62    25    63 1   
    63    26    27 ar  
    64    26    64 1   
    65    27    28 ar  
    66    27    65 1   
    67    28    29 ar  
    68    28    66 1   
    69    29    67 1   
    70    30    70 1   
    71    32    68 1   
    72    33    69 1   
    73    41    70 1   
@<TRIPOS>SUBSTRUCTURE
     1 90C         1 TEMP              0 ****  ****    0 ROOT
