@<TRIPOS>MOLECULE
molecule
   70    73     1     0     0
SMALL
bcc


@<TRIPOS>ATOM
      1 C10          0.0000     0.0000     0.0000 ca         1 90C       0.109600
      2 C13          1.3840    -0.0110     2.4000 ca         1 90C      -0.076800
      3 C15          1.3910     0.0000     0.0000 ca         1 90C      -0.169000
      4 C17          2.0280     1.1440     4.5960 ca         1 90C      -0.052800
      5 C20          1.8510     3.3170     6.3060 ca         1 90C       0.103100
      6 C22          1.3600     2.0800     6.7050 ca         1 90C      -0.154000
      7 C24          2.8870    -1.0850     4.0210 ce         1 90C      -0.051400
      8 C26          5.1600    -0.5800     4.8740 c3         1 90C      -0.076400
      9 C01         -3.1680     2.2830    -5.0370 c3         1 90C      -0.091600
     10 C03         -1.2310     1.1740    -6.1580 c3         1 90C      -0.091600
     11 C05         -0.5710    -0.0690    -3.6530 c3         1 90C       0.158300
     12 C06          0.2290     0.0050    -2.3500 c3         1 90C       0.165300
     13 C08         -1.6150     1.1510    -1.2810 c3         1 90C       0.165300
     14 C09         -2.4160     1.0760    -2.5840 c3         1 90C       0.158300
     15 C11         -0.6970     0.0010     1.2030 ca         1 90C      -0.169000
     16 C12         -0.0120    -0.0050     2.3980 ca         1 90C      -0.086000
     17 C14          2.0820     0.0000     1.1910 ca         1 90C      -0.086000
     18 C16          2.1230    -0.0150     3.6820 cf         1 90C      -0.012400
     19 C18          2.5160     2.3900     4.1970 ca         1 90C      -0.104500
     20 C19          2.4260     3.4680     5.0500 ca         1 90C      -0.154000
     21 C23          1.4470     0.9970     5.8560 ca         1 90C      -0.104500
     22 C25          3.7500    -1.0330     5.2550 c3         1 90C      -0.042200
     23 C27          5.9950    -0.3900     6.1410 c3         1 90C       0.140400
     24 C29          2.8730    -2.2920     3.1820 ca         1 90C      -0.051800
     25 C30          1.7030    -3.0480     3.0560 ca         1 90C      -0.112500
     26 C31          1.6980    -4.1800     2.2680 ca         1 90C      -0.128500
     27 C32          2.8480    -4.5690     1.6030 ca         1 90C      -0.127000
     28 C33          4.0100    -3.8270     1.7230 ca         1 90C      -0.128500
     29 C34          4.0300    -2.6890     2.5010 ca         1 90C      -0.112500
     30 N04         -1.4910     1.0750    -3.7250 n3         1 90C      -0.730600
     31 N07         -0.6970     0.0060    -1.2090 nh         1 90C      -0.599000
     32 O21          1.7640     4.3820     7.1440 oh         1 90C      -0.522100
     33 O28          7.3120     0.0340     5.7850 oh         1 90C      -0.611800
     34 H1           1.9310     0.0040    -0.9390 ha         1 90C       0.136500
     35 H2           0.9100     1.9660     7.6830 ha         1 90C       0.141000
     36 H4           5.1040     0.3580     4.3340 hc         1 90C       0.057200
     37 H5           5.6230    -1.3310     4.2450 hc         1 90C       0.057200
     38 H6          -3.4430     2.4940    -6.0630 hc         1 90C       0.039867
     39 H7          -4.0610     2.0720    -4.4600 hc         1 90C       0.039867
     40 H8          -2.6610     3.1430    -4.6150 hc         1 90C       0.039867
     41 H9          -2.7990     0.1660    -5.0880 h1         1 90C       0.023700
     42 H10         -0.8130     0.1940    -6.3560 hc         1 90C       0.039867
     43 H11         -0.4370     1.8550    -5.8770 hc         1 90C       0.039867
     44 H12         -1.7250     1.5430    -7.0490 hc         1 90C       0.039867
     45 H13         -1.1410    -0.9910    -3.6740 h1         1 90C       0.043950
     46 H14          0.1090    -0.0390    -4.4950 h1         1 90C       0.043950
     47 H15          0.8850    -0.8550    -2.2810 h1         1 90C       0.049950
     48 H16          0.8160     0.9150    -2.3390 h1         1 90C       0.049950
     49 H17         -2.2950     1.1210    -0.4380 h1         1 90C       0.049950
     50 H18         -1.0450     2.0720    -1.2610 h1         1 90C       0.049950
     51 H19         -3.0720     1.9360    -2.6530 h1         1 90C       0.043950
     52 H20         -3.0030     0.1650    -2.5940 h1         1 90C       0.043950
     53 H21         -1.7810     0.0030     1.2000 ha         1 90C       0.136500
     54 H22         -0.5560    -0.0090     3.3350 ha         1 90C       0.134500
     55 H23          3.1650    -0.0020     1.1900 ha         1 90C       0.134500
     56 H25          2.9650     2.5090     3.2190 ha         1 90C       0.139000
     57 H26          2.8060     4.4350     4.7420 ha         1 90C       0.141000
     58 H27          1.0640     0.0320     6.1670 ha         1 90C       0.139000
     59 H28          3.3250    -0.3330     5.9640 hc         1 90C       0.054700
     60 H29          3.7960    -2.0180     5.7050 hc         1 90C       0.054700
     61 H30          6.0510    -1.3280     6.6810 h1         1 90C       0.018700
     62 H31          5.5320     0.3610     6.7700 h1         1 90C       0.018700
     63 H32          0.8020    -2.7450     3.5760 ha         1 90C       0.135000
     64 H33          0.7920    -4.7660     2.1700 ha         1 90C       0.129500
     65 H34          2.8390    -5.4600     0.9870 ha         1 90C       0.127000
     66 H35          4.9050    -4.1370     1.1970 ha         1 90C       0.129500
     67 H36          4.9410    -2.1100     2.5940 ha         1 90C       0.135000
     68 H38          2.5390     4.4250     7.6790 ho         1 90C       0.418000
     69 H39          7.8270     0.1520     6.5660 ho         1 90C       0.401000
     70 C02         -2.2240     1.0800    -4.9980 c3         1 90C       0.167500
@<TRIPOS>BOND
     1    33    23 1
     2    23     8 1
     3    22     8 1
     4    22     7 1
     5    32     5 1
     6    25    26 ar
     7    25    24 ar
     8     7    24 1
     9     7    18 2
    10     5    20 ar
    11     5     6 ar
    12    20    19 ar
    13    26    27 ar
    14     6    21 ar
    15    24    29 ar
    16    19     4 ar
    17    21     4 ar
    18     4    18 1
    19    18     2 1
    20    27    28 ar
    21    29    28 ar
    22    17     2 ar
    23    17     3 ar
    24     2    16 ar
    25     3     1 ar
    26    16    15 ar
    27     1    15 ar
    28     1    31 1
    29    31    12 1
    30    31    13 1
    31    12    11 1
    32    11    30 1
    33    13    14 1
    34    30    14 1
    35    30    70 1
    36    10    70 1
    37    70     9 1
    38     3    34 1
    39     6    35 1
    40     8    36 1
    41     8    37 1
    42     9    38 1
    43     9    39 1
    44     9    40 1
    45    70    41 1
    46    10    42 1
    47    10    43 1
    48    10    44 1
    49    11    45 1
    50    11    46 1
    51    12    47 1
    52    12    48 1
    53    13    49 1
    54    13    50 1
    55    14    51 1
    56    14    52 1
    57    15    53 1
    58    16    54 1
    59    17    55 1
    60    19    56 1
    61    20    57 1
    62    21    58 1
    63    22    59 1
    64    22    60 1
    65    23    61 1
    66    23    62 1
    67    25    63 1
    68    26    64 1
    69    27    65 1
    70    28    66 1
    71    29    67 1
    72    32    68 1
    73    33    69 1
@<TRIPOS>SUBSTRUCTURE
     1 90C         1 TEMP              0 ****  ****    0 ROOT
