@<TRIPOS>MOLECULE
90D
   80    82     1     0     0
SMALL
bcc


@<TRIPOS>ATOM
      1 C01          0.0000     0.0000     0.0000 c3         1 90D       0.004900
      2 C02          1.5300     0.0000     0.0000 c3         1 90D       0.022900
      3 C03          2.0320     0.0000     1.4210 ca         1 90D      -0.073300
      4 C04          2.2630    -1.1970     2.0720 ca         1 90D      -0.093000
      5 C05          2.7230    -1.2050     3.3760 ca         1 90D      -0.111000
      6 C06          2.9560    -0.0150     4.0350 ca         1 90D      -0.056000
      7 C07          2.7260     1.1960     3.3840 cp         1 90D      -0.029000
      8 C08          2.2670     1.1970     2.0680 ca         1 90D      -0.093000
      9 C09          2.9740     2.4780     4.0870 cp         1 90D      -0.030000
     10 C10          1.9050     3.2180     4.5920 ca         1 90D       0.117900
     11 F11          0.6400     2.7700     4.4410 f          1 90D      -0.121900
     12 C12          2.1440     4.4130     5.2460 ca         1 90D      -0.134000
     13 C13          3.4390     4.8720     5.4010 ca         1 90D      -0.078000
     14 C14          4.5020     4.1410     4.9010 ca         1 90D      -0.130000
     15 C15          4.2760     2.9450     4.2510 ca         1 90D      -0.057300
     16 C16          5.4370     2.1480     3.7140 c3         1 90D       0.229100
     17 O17          5.0590     0.7750     3.5980 oh         1 90D      -0.562800
     18 C18          6.6260     2.2710     4.6680 c3         1 90D      -0.068400
     19 C19          6.2320     1.7330     6.0450 c3         1 90D      -0.054400
     20 C20          7.4210     1.8560     7.0000 c3         1 90D       0.063000
     21 N21          7.0440     1.3420     8.3190 ns         1 90D      -0.175900
     22 C22          7.9380     1.3490     9.3270 c          1 90D       0.677100
     23 O23          9.0590     1.7840     9.1420 o          1 90D      -0.662000
     24 O24          7.5910     0.8750    10.5390 os         1 90D      -0.428900
     25 C25          8.6060     0.9160    11.5770 c3         1 90D       0.287700
     26 C26          5.8320     2.6860     2.3370 c3         1 90D      -0.084700
     27 C28          6.3000     4.1370     2.4690 c3         1 90D      -0.051400
     28 C29          6.7250     4.6660     1.0980 c3         1 90D      -0.036400
     29 C30          5.5250     4.6300     0.1470 c3         1 90D       0.040000
     30 N31          4.9790     3.2660     0.1250 n          1 90D      -0.154800
     31 C32          4.6210     2.6280     1.3990 c3         1 90D       0.015000
     32 C33          4.8080     2.6140    -1.0420 c          1 90D       0.587100
     33 O34          4.3560     1.4880    -1.0460 o          1 90D      -0.647100
     34 C35          5.1800     3.2820    -2.3400 c3         1 90D      -0.101400
     35 C36          4.8900     2.3320    -3.5030 c3         1 90D      -0.017400
     36 C37          5.2670     3.0100    -4.8220 c3         1 90D       0.138800
     37 N38          4.9890     2.0980    -5.9390 n7         1 90D      -0.582200
     38 C39          5.3400     2.7160    -7.2240 c3         1 90D       0.179100
     39 H1          -0.3610    -1.0210     0.0390 hc         1 90D       0.001033
     40 H2          -0.3610     0.4770    -0.9030 hc         1 90D       0.001033
     41 H3          -0.3610     0.5440     0.8640 hc         1 90D       0.001033
     42 H4           1.8920     0.8850    -0.5110 hc         1 90D       0.026700
     43 H5           1.8920    -0.8850    -0.5110 hc         1 90D       0.026700
     44 H6           2.0810    -2.1340     1.5590 ha         1 90D       0.104000
     45 H7           2.9010    -2.1470     3.8810 ha         1 90D       0.099000
     46 H8           3.3150    -0.0210     5.0580 ha         1 90D       0.105000
     47 H9           2.0860     2.1350     1.5570 ha         1 90D       0.114000
     48 H10          1.3150     4.9900     5.6390 ha         1 90D       0.121000
     49 H11          3.6220     5.8090     5.9120 ha         1 90D       0.108000
     50 H12          5.5140     4.5050     5.0270 ha         1 90D       0.121000
     51 H13          5.8210     0.2550     3.4030 ho         1 90D       0.386000
     52 H14          7.4600     1.6980     4.2820 hc         1 90D       0.032700
     53 H15          6.9130     3.3120     4.7550 hc         1 90D       0.032700
     54 H16          5.3980     2.3060     6.4310 hc         1 90D       0.032200
     55 H17          5.9450     0.6920     5.9580 hc         1 90D       0.032200
     56 H18          8.2550     1.2830     6.6140 h1         1 90D       0.024700
     57 H19          7.7080     2.8970     7.0870 h1         1 90D       0.024700
     58 H20          6.1220     0.9840     8.4720 hn         1 90D       0.177500
     59 H21          9.4770     0.3600    11.2520 h1         1 90D      -0.000300
     60 H22          8.8850     1.9450    11.7690 h1         1 90D      -0.000300
     61 H23          8.2120     0.4730    12.4840 h1         1 90D      -0.000300
     62 H24          6.6340     2.0860     1.9250 hc         1 90D       0.040700
     63 H25          7.1420     4.1820     3.1490 hc         1 90D       0.030700
     64 H26          5.4880     4.7430     2.8520 hc         1 90D       0.030700
     65 H27          7.0760     5.6860     1.1990 hc         1 90D       0.020700
     66 H28          7.5180     4.0430     0.7020 hc         1 90D       0.020700
     67 H29          4.7660     5.3190     0.4960 h1         1 90D       0.025200
     68 H30          5.8450     4.9080    -0.8500 h1         1 90D       0.025200
     69 H31          3.7890     3.1570     1.8480 h1         1 90D       0.064200
     70 H32          4.3490     1.5940     1.2220 h1         1 90D       0.064200
     71 H33          4.5970     4.1880    -2.4600 hc         1 90D       0.029200
     72 H34          6.2340     3.5300    -2.3300 hc         1 90D       0.029200
     73 H35          3.8360     2.0840    -3.5130 hc         1 90D       0.035200
     74 H36          5.4730     1.4260    -3.3840 hc         1 90D       0.035200
     75 H37          4.6850     3.9150    -4.9420 h1         1 90D       0.002200
     76 H38          6.3220     3.2570    -4.8130 h1         1 90D       0.002200
     77 H39          5.5140     1.2540    -5.8200 hn         1 90D       0.252800
     78 H41          6.4150     2.8320    -7.2880 h1         1 90D      -0.002967
     79 H42          4.9960     2.0850    -8.0340 h1         1 90D      -0.002967
     80 H43          4.8670     3.6880    -7.2980 h1         1 90D      -0.002967
@<TRIPOS>BOND
     1     1     2 1   
     2     1    39 1   
     3     1    40 1   
     4     1    41 1   
     5     2     3 1   
     6     2    42 1   
     7     2    43 1   
     8     3     4 ar  
     9     3     8 ar  
    10     4     5 ar  
    11     4    44 1   
    12     5     6 ar  
    13     5    45 1   
    14     6     7 ar  
    15     6    46 1   
    16     7     8 ar  
    17     7     9 1   
    18     8    47 1   
    19     9    10 ar  
    20     9    15 ar  
    21    10    11 1   
    22    10    12 ar  
    23    12    13 ar  
    24    12    48 1   
    25    13    14 ar  
    26    13    49 1   
    27    14    15 ar  
    28    14    50 1   
    29    15    16 1   
    30    16    17 1   
    31    16    18 1   
    32    16    26 1   
    33    17    51 1   
    34    18    19 1   
    35    18    52 1   
    36    18    53 1   
    37    19    20 1   
    38    19    54 1   
    39    19    55 1   
    40    20    21 1   
    41    20    56 1   
    42    20    57 1   
    43    21    22 1   
    44    21    58 1   
    45    22    23 2   
    46    22    24 1   
    47    24    25 1   
    48    25    59 1   
    49    25    60 1   
    50    25    61 1   
    51    26    27 1   
    52    26    31 1   
    53    26    62 1   
    54    27    28 1   
    55    27    63 1   
    56    27    64 1   
    57    28    29 1   
    58    28    65 1   
    59    28    66 1   
    60    29    30 1   
    61    29    67 1   
    62    29    68 1   
    63    30    31 1   
    64    30    32 1   
    65    31    69 1   
    66    31    70 1   
    67    32    33 2   
    68    32    34 1   
    69    34    35 1   
    70    34    71 1   
    71    34    72 1   
    72    35    36 1   
    73    35    73 1   
    74    35    74 1   
    75    36    37 1   
    76    36    75 1   
    77    36    76 1   
    78    37    38 1   
    79    37    77 1   
    80    38    78 1   
    81    38    79 1   
    82    38    80 1   
@<TRIPOS>SUBSTRUCTURE
     1 90D         1 TEMP              0 ****  ****    0 ROOT
