@<TRIPOS>MOLECULE
molecule
   56    59     1     0     0
SMALL
bcc


@<TRIPOS>ATOM
      1 FAX          0.0000     0.0000     0.0000 f          1 90E      -0.224300
      2 CAW          1.3990     0.0000     0.0000 c3         1 90E       0.394600
      3 FAY          1.8650    -1.1420    -0.6600 f          1 90E      -0.224300
      4 CAV          1.9100     0.0000     1.4430 c3         1 90E       0.115800
      5 NAU          3.3780     0.0200     1.4440 n7         1 90E      -0.811200
      6 CAT          3.8920     1.2360     0.8010 c3         1 90E       0.155800
      7 CAS          3.4410     1.2730    -0.6610 c3         1 90E      -0.093400
      8 CAR          1.9110     1.2510    -0.7190 c3         1 90E       0.081700
      9 NAQ          1.4740     1.2270    -2.1170 ns         1 90E      -0.578900
     10 CAP          0.2570     1.6990    -2.4510 c          1 90E       0.676700
     11 OAZ         -0.4790     2.1450    -1.5910 o          1 90E      -0.588100
     12 CAO         -0.1830     1.6750    -3.8620 ca         1 90E      -0.122600
     13 CBA         -1.4410     2.1680    -4.2110 ca         1 90E      -0.072000
     14 CAN          0.6590     1.1640    -4.8500 ca         1 90E      -0.126000
     15 CAM          0.2460     1.1430    -6.1670 ca         1 90E      -0.115000
     16 CAL         -1.0020     1.6260    -6.5120 ca         1 90E      -0.147000
     17 CAK         -1.8470     2.1410    -5.5360 ca         1 90E       0.142600
     18 NAJ         -3.1060     2.6360    -5.8920 nu         1 90E      -0.741300
     19 CAI         -3.7120     3.6020    -5.1160 cc         1 90E       0.730300
     20 SBB         -5.3080     4.1720    -5.3400 ss         1 90E      -0.236300
     21 NAH         -3.1500     4.2040    -4.1080 nd         1 90E      -0.758000
     22 CAG         -3.8610     5.1000    -3.4720 cd         1 90E       0.495200
     23 CAF         -5.1210     5.2710    -3.9760 cc         1 90E      -0.260000
     24 CAE         -6.1330     6.1960    -3.4700 c          1 90E       0.714700
     25 OBC         -5.8830     6.9080    -2.5150 o          1 90E      -0.573100
     26 NAD         -7.3420     6.2610    -4.0610 ns         1 90E      -0.482100
     27 CAC         -8.2690     7.2260    -3.6530 ca         1 90E       0.057600
     28 CAB         -8.5940     7.3560    -2.3090 ca         1 90E       0.041400
     29 ClA         -7.8500     6.3200    -1.1310 cl         1 90E      -0.077400
     30 CBH         -9.5110     8.3100    -1.9100 ca         1 90E      -0.118000
     31 CBG        -10.1040     9.1360    -2.8480 ca         1 90E      -0.124000
     32 CBF         -9.7830     9.0080    -4.1870 ca         1 90E      -0.120000
     33 CBD         -8.8630     8.0610    -4.5920 ca         1 90E      -0.089300
     34 CBE         -8.5090     7.9280    -6.0500 c3         1 90E      -0.044800
     35 H1           1.5620    -0.8930     1.9480 h1         1 90E       0.059700
     36 H2           1.5380     0.8780     1.9560 h1         1 90E       0.059700
     37 H3           3.7120    -0.0260     2.3860 hn         1 90E       0.366800
     38 H5           3.5070     2.1070     1.3180 h1         1 90E       0.040700
     39 H6           4.9750     1.2350     0.8430 h1         1 90E       0.040700
     40 H7           3.8340     0.4070    -1.1810 hc         1 90E       0.064700
     41 H8           3.8070     2.1790    -1.1280 hc         1 90E       0.064700
     42 H9           1.5200     2.1330    -0.2280 h1         1 90E       0.097700
     43 H10          2.0870     0.8790    -2.8270 hn         1 90E       0.322500
     44 H11         -2.0980     2.5690    -3.4490 ha         1 90E       0.195000
     45 H12          1.6380     0.7840    -4.5840 ha         1 90E       0.126000
     46 H13          0.9020     0.7440    -6.9320 ha         1 90E       0.136000
     47 H14         -1.3210     1.6060    -7.5470 ha         1 90E       0.131000
     48 H15         -3.5730     2.2790    -6.7020 hn         1 90E       0.463800
     49 H16         -3.4850     5.6570    -2.6220 h4         1 90E       0.073100
     50 H17         -7.5940     5.5890    -4.7590 hn         1 90E       0.324500
     51 H18         -9.7650     8.4120    -0.8620 ha         1 90E       0.146000
     52 H19        -10.8240     9.8810    -2.5330 ha         1 90E       0.136000
     53 H20        -10.2470     9.6580    -4.9180 ha         1 90E       0.135000
     54 H21         -8.8740     6.9800    -6.4260 hc         1 90E       0.045367
     55 H22         -8.9660     8.7370    -6.6080 hc         1 90E       0.045367
     56 H23         -7.4330     7.9730    -6.1670 hc         1 90E       0.045367
@<TRIPOS>BOND
     1     7     6 1
     2     7     8 1
     3     5     6 1
     4     5     4 1
     5     8     2 1
     6     8     9 1
     7     4     2 1
     8     2     1 1
     9     2     3 1
    10     9    10 1
    11    11    10 2
    12    10    12 1
    13    13    12 ar
    14    13    17 ar
    15    12    14 ar
    16    18    17 1
    17    18    19 1
    18    21    19 2
    19    21    22 1
    20    17    16 ar
    21    19    20 1
    22    22    23 2
    23    14    15 ar
    24    16    15 ar
    25    20    23 1
    26    23    24 1
    27    29    28 1
    28    26    24 1
    29    26    27 1
    30    24    25 2
    31    27    28 ar
    32    27    33 ar
    33    28    30 ar
    34    34    33 1
    35    33    32 ar
    36    30    31 ar
    37    32    31 ar
    38     4    35 1
    39     4    36 1
    40     5    37 1
    41     6    38 1
    42     6    39 1
    43     7    40 1
    44     7    41 1
    45     8    42 1
    46     9    43 1
    47    13    44 1
    48    14    45 1
    49    15    46 1
    50    16    47 1
    51    18    48 1
    52    22    49 1
    53    26    50 1
    54    30    51 1
    55    31    52 1
    56    32    53 1
    57    34    54 1
    58    34    55 1
    59    34    56 1
@<TRIPOS>SUBSTRUCTURE
     1 90E         1 TEMP              0 ****  ****    0 ROOT
