@<TRIPOS>MOLECULE
molecule
   27    28     1     0     0
SMALL
bcc


@<TRIPOS>ATOM
      1 O15          0.0000     0.0000     0.0000 o          1 90G      -0.545100
      2 C14          1.2130     0.0000     0.0000 c          1 90G       0.682100
      3 C16          1.9660     0.0000     1.3050 c3         1 90G      -0.058300
      4 S17          0.7870    -0.0010     2.6840 sh         1 90G      -0.323900
      5 N13          1.8870    -0.0050    -1.1670 ns         1 90G      -0.459100
      6 C10          1.1900    -0.0110    -2.3750 cc         1 90G       0.056300
      7 C9          -0.1620    -0.0110    -2.5210 cd         1 90G      -0.335300
      8 N11          1.7390    -0.0100    -3.6170 na         1 90G      -0.069600
      9 N12          0.6970    -0.0170    -4.5530 nc         1 90G      -0.501800
     10 C8          -0.4450    -0.0180    -3.9000 cd         1 90G       0.404800
     11 C3          -1.7980    -0.0220    -4.5090 ca         1 90G      -0.113500
     12 C2          -1.9390    -0.0280    -5.8960 ca         1 90G      -0.096000
     13 C4          -2.9300    -0.0250    -3.6980 ca         1 90G      -0.096000
     14 C5          -4.1870    -0.0300    -4.2710 ca         1 90G      -0.128000
     15 C6          -4.3220    -0.0300    -5.6480 ca         1 90G       0.034400
     16 Cl0         -5.9040    -0.0360    -6.3630 cl         1 90G      -0.112400
     17 C1          -3.2000    -0.0320    -6.4590 ca         1 90G      -0.128000
     18 H1           2.5890     0.8850     1.3630 h1         1 90G       0.075700
     19 H2           2.5890    -0.8840     1.3630 h1         1 90G       0.075700
     20 H3           1.4500    -0.0010     3.8340 hs         1 90G       0.198800
     21 H4           2.8870    -0.0050    -1.1670 hn         1 90G       0.320500
     22 H5          -0.8910    -0.0110    -1.7190 ha         1 90G       0.201000
     23 H6           2.7180    -0.0080    -3.8280 hn         1 90G       0.324700
     24 H7          -1.0610    -0.0300    -6.5310 ha         1 90G       0.151000
     25 H8          -2.8250    -0.0250    -2.6200 ha         1 90G       0.151000
     26 H9          -5.0690    -0.0320    -3.6410 ha         1 90G       0.145500
     27 H10         -3.3110    -0.0350    -7.5360 ha         1 90G       0.145500
@<TRIPOS>BOND
     1     4     3 1
     2     3     2 1
     3     5     2 1
     4     5     6 1
     5     8     6 1
     6     8     9 1
     7     2     1 2
     8     6     7 2
     9     9    10 2
    10     7    10 1
    11    10    11 1
    12    13    11 ar
    13    13    14 ar
    14    11    12 ar
    15    14    15 ar
    16    12    17 ar
    17    15    17 ar
    18    15    16 1
    19     3    18 1
    20     3    19 1
    21     4    20 1
    22     5    21 1
    23     7    22 1
    24     8    23 1
    25    12    24 1
    26    13    25 1
    27    14    26 1
    28    17    27 1
@<TRIPOS>SUBSTRUCTURE
     1 90G         1 TEMP              0 ****  ****    0 ROOT
