@<TRIPOS>MOLECULE
molecule
   27    28     1     0     0
SMALL
bcc


@<TRIPOS>ATOM
      1 C3           0.0000     0.0000     0.0000 cc         1 90J      -0.083300
      2 C4           1.3640     0.0000     0.0000 cd         1 90J      -0.293300
      3 C5           1.7890     0.0000     1.3470 cd         1 90J       0.476200
      4 C6           2.2410     0.0010    -1.1980 ca         1 90J      -0.011000
      5 C7           2.0300    -0.9230    -2.2200 ca         1 90J      -0.106000
      6 C8           2.8470    -0.9180    -3.3310 ca         1 90J      -0.163500
      7 C9           3.8780     0.0020    -3.4320 ca         1 90J       0.127900
      8 C10          4.0920     0.9220    -2.4180 ca         1 90J      -0.163500
      9 C11          3.2760     0.9270    -1.3050 ca         1 90J      -0.106000
     10 O12          2.4770    -0.0000     3.9160 o          1 90J      -0.517100
     11 S13          4.8450    -0.0000     5.4050 sh         1 90J      -0.325900
     12 F9           4.6770     0.0020    -4.5210 f          1 90J      -0.140900
     13 N2          -0.4100     0.0050     1.2850 na         1 90J      -0.037600
     14 N1           0.7220    -0.0000     2.1090 nc         1 90J      -0.484800
     15 C13          4.8150     0.0010     3.5920 c3         1 90J      -0.058300
     16 C12          3.3860     0.0000     3.1130 c          1 90J       0.663100
     17 N5           3.1170     0.0010     1.7930 ns         1 90J      -0.536400
     18 H1          -0.6390     0.0010    -0.8750 h4         1 90J       0.175000
     19 H2           1.2240    -1.6430    -2.1420 ha         1 90J       0.140000
     20 H3           2.6830    -1.6350    -4.1250 ha         1 90J       0.145500
     21 H4           4.8980     1.6410    -2.5010 ha         1 90J       0.145500
     22 H5           3.4440     1.6470    -0.5130 ha         1 90J       0.140000
     23 H6           6.1040    -0.0010     5.8260 hs         1 90J       0.194800
     24 H7          -1.3610     0.0060     1.5960 hn         1 90J       0.337700
     25 H8           5.3190     0.8860     3.2220 h1         1 90J       0.073200
     26 H9           5.3200    -0.8840     3.2220 h1         1 90J       0.073200
     27 H10          3.8660    -0.0240     1.1300 hn         1 90J       0.335500
@<TRIPOS>BOND
     1    11    15 1
     2    14    13 1
     3    14     3 2
     4    17     3 1
     5    17    16 1
     6    15    16 1
     7    13     1 1
     8     3     2 1
     9    16    10 2
    10     1     2 2
    11     2     4 1
    12     9     4 ar
    13     9     8 ar
    14     4     5 ar
    15     8     7 ar
    16     5     6 ar
    17     7     6 ar
    18     7    12 1
    19     1    18 1
    20     5    19 1
    21     6    20 1
    22     8    21 1
    23     9    22 1
    24    11    23 1
    25    13    24 1
    26    15    25 1
    27    15    26 1
    28    17    27 1
@<TRIPOS>SUBSTRUCTURE
     1 90J         1 TEMP              0 ****  ****    0 ROOT
