@<TRIPOS>MOLECULE
molecule
   53    56     1     0     0
SMALL
bcc


@<TRIPOS>ATOM
      1 CBD          0.0000     0.0000     0.0000 c3         1 90K      -0.045800
      2 CBC          1.5070     0.0000     0.0000 ca         1 90K      -0.098300
      3 CBE          2.1980     0.0000     1.1960 ca         1 90K      -0.115000
      4 CBF          3.5810     0.0010     1.1980 ca         1 90K      -0.130000
      5 CBG          4.2770     0.0000     0.0030 ca         1 90K      -0.113000
      6 CAB          3.5920    -0.0010    -1.1980 ca         1 90K       0.031400
      7 Cl1          4.4660    -0.0020    -2.6970 cl         1 90K      -0.070400
      8 CAC          2.2020    -0.0070    -1.2020 ca         1 90K       0.063600
      9 NAD          1.5050    -0.0080    -2.4140 ns         1 90K      -0.475100
     10 CAE          1.9170    -0.7950    -3.4280 c          1 90K       0.703700
     11 OBB          2.8570    -1.5530    -3.2670 o          1 90K      -0.566100
     12 CAF          1.2350    -0.7410    -4.7200 cc         1 90K      -0.256000
     13 SBA         -0.1340     0.2900    -5.1290 ss         1 90K      -0.237300
     14 CAG          1.5500    -1.4750    -5.8300 cc         1 90K       0.494200
     15 NAH          0.7830    -1.2370    -6.8620 nc         1 90K      -0.756000
     16 CAI         -0.1610    -0.3520    -6.7130 cd         1 90K       0.728300
     17 NAJ         -1.0560     0.0160    -7.6960 nu         1 90K      -0.740300
     18 CAK         -1.0710    -0.6620    -8.9180 ca         1 90K       0.143600
     19 CAZ         -0.6330    -1.9770    -8.9870 ca         1 90K      -0.074000
     20 CAL         -1.5290    -0.0220   -10.0640 ca         1 90K      -0.147000
     21 CAM         -1.5450    -0.6890   -11.2740 ca         1 90K      -0.114000
     22 CAN         -1.1080    -1.9950   -11.3540 ca         1 90K      -0.126000
     23 CAO         -0.6510    -2.6500   -10.2090 ca         1 90K      -0.127600
     24 CAP         -0.1870    -4.0510   -10.2890 c          1 90K       0.673700
     25 OAY          0.2110    -4.6190    -9.2910 o          1 90K      -0.579100
     26 NAQ         -0.2050    -4.6980   -11.4710 ns         1 90K      -0.474100
     27 CAR          0.1360    -6.0540   -11.5300 ca         1 90K       0.103600
     28 CAX         -0.1900    -6.8990   -10.4790 ca         1 90K      -0.206000
     29 CAV          0.1490    -8.2420   -10.5420 ca         1 90K       0.222600
     30 NAW         -0.1770    -9.0960    -9.4860 nv         1 90K      -0.918200
     31 CAU          0.8130    -8.7390   -11.6580 ca         1 90K      -0.229000
     32 CAT          1.1360    -7.8940   -12.7030 ca         1 90K      -0.064000
     33 CAS          0.7950    -6.5570   -12.6450 ca         1 90K      -0.225000
     34 H1          -0.3610    -0.1330     1.0130 hc         1 90K       0.045033
     35 H2          -0.3610    -0.8110    -0.6210 hc         1 90K       0.045033
     36 H3          -0.3610     0.9430    -0.3910 hc         1 90K       0.045033
     37 H4           1.6560     0.0000     2.1340 ha         1 90K       0.135000
     38 H5           4.1200     0.0010     2.1370 ha         1 90K       0.136000
     39 H6           5.3600     0.0010     0.0080 ha         1 90K       0.146000
     40 H7           0.7320     0.6150    -2.5480 hn         1 90K       0.324500
     41 H8           2.3620    -2.1920    -5.8520 h4         1 90K       0.074100
     42 H9          -1.7110     0.7540    -7.5260 hn         1 90K       0.463800
     43 H10         -0.2800    -2.4790    -8.0950 ha         1 90K       0.194000
     44 H11         -1.8730     1.0040   -10.0080 ha         1 90K       0.132000
     45 H12         -1.9010    -0.1850   -12.1640 ha         1 90K       0.136000
     46 H13         -1.1230    -2.5140   -12.3040 ha         1 90K       0.127000
     47 H14         -0.3490    -4.1840   -12.3180 hn         1 90K       0.324500
     48 H15         -0.7750    -6.5270    -9.6470 ha         1 90K       0.154000
     49 H16         -0.6570    -8.7390    -8.6840 hn         1 90K       0.430800
     50 H17          0.0670   -10.0660    -9.5330 hn         1 90K       0.430800
     51 H18          1.0790    -9.7870   -11.7070 ha         1 90K       0.127000
     52 H19          1.6510    -8.2840   -13.5730 ha         1 90K       0.128000
     53 H20          1.0490    -5.8980   -13.4660 ha         1 90K       0.125000
@<TRIPOS>BOND
     1    32    31 ar  
     2    32    33 ar  
     3    31    29 ar  
     4    33    27 ar  
     5    29    30 1   
     6    29    28 ar  
     7    27    28 ar  
     8    27    26 1   
     9    26    24 1   
    10    25    24 2   
    11    24    23 1   
    12    19    23 ar  
    13    19    18 ar  
    14    23    22 ar  
    15    17    18 1   
    16    17    16 1   
    17    18    20 ar  
    18    15    16 2   
    19    15    14 1   
    20    22    21 ar  
    21    16    13 1   
    22    14    12 2   
    23    20    21 ar  
    24    13    12 1   
    25    12    10 1   
    26     7     6 1   
    27     9    10 1   
    28     9     8 1   
    29    10    11 2   
    30     8     6 ar  
    31     8     2 ar  
    32     6     5 ar  
    33     1     2 1   
    34     2     3 ar  
    35     5     4 ar  
    36     3     4 ar  
    37     1    34 1   
    38     1    35 1   
    39     1    36 1   
    40     3    37 1   
    41     4    38 1   
    42     5    39 1   
    43     9    40 1   
    44    14    41 1   
    45    17    42 1   
    46    19    43 1   
    47    20    44 1   
    48    21    45 1   
    49    22    46 1   
    50    26    47 1   
    51    28    48 1   
    52    30    49 1   
    53    30    50 1   
    54    31    51 1   
    55    32    52 1   
    56    33    53 1   
@<TRIPOS>SUBSTRUCTURE
     1 90K         1 TEMP              0 ****  ****    0 ROOT
