@<TRIPOS>MOLECULE
90K
   53    56     1     0     0
SMALL
bcc


@<TRIPOS>ATOM
      1 CBD          0.0000     0.0000     0.0000 c3         1 90K       0.062200
      2 CBC          1.5070     0.0000     0.0000 ca         1 90K      -0.101300
      3 CBE          2.1980     0.0000     1.1960 ca         1 90K      -0.090000
      4 CBF          3.5810     0.0010     1.1980 ca         1 90K      -0.097000
      5 CBG          4.2770     0.0000     0.0030 ca         1 90K      -0.090000
      6 CAB          3.5920    -0.0010    -1.1980 ca         1 90K      -0.037600
      7 Cl1          4.4660    -0.0020    -2.6970 cl         1 90K       0.032600
      8 CAC          2.2020    -0.0070    -1.2020 ca         1 90K      -0.083400
      9 NAD          1.5050    -0.0080    -2.4140 ns         1 90K      -0.034100
     10 CAE          1.9170    -0.7950    -3.4280 c          1 90K       0.618700
     11 OBB          2.8570    -1.5530    -3.2670 o          1 90K      -0.621100
     12 CAF          1.2350    -0.7410    -4.7200 cc         1 90K      -0.241000
     13 SBA         -0.1340     0.2900    -5.1290 ss         1 90K      -0.330300
     14 CAG          1.5500    -1.4750    -5.8300 cd         1 90K       0.496200
     15 NAH          0.7830    -1.2370    -6.8620 nd         1 90K      -0.655000
     16 CAI         -0.1610    -0.3520    -6.7130 cc         1 90K       0.556300
     17 NAJ         -1.0560     0.0160    -7.6960 nu         1 90K      -0.240300
     18 CAK         -1.0710    -0.6620    -8.9180 ca         1 90K      -0.027400
     19 CAZ         -0.6330    -1.9770    -8.9870 ca         1 90K      -0.050000
     20 CAL         -1.5290    -0.0220   -10.0640 ca         1 90K      -0.116000
     21 CAM         -1.5450    -0.6890   -11.2740 ca         1 90K      -0.085000
     22 CAN         -1.1080    -1.9950   -11.3540 ca         1 90K      -0.102000
     23 CAO         -0.6510    -2.6500   -10.2090 ca         1 90K      -0.134600
     24 CAP         -0.1870    -4.0510   -10.2890 c          1 90K       0.582700
     25 OAY          0.2110    -4.6190    -9.2910 o          1 90K      -0.623100
     26 NAQ         -0.2050    -4.6980   -11.4710 ns         1 90K      -0.038100
     27 CAR          0.1360    -6.0540   -11.5300 ca         1 90K      -0.037400
     28 CAX         -0.1900    -6.8990   -10.4790 ca         1 90K      -0.184000
     29 CAV          0.1490    -8.2420   -10.5420 ca         1 90K       0.073600
     30 NAW         -0.1770    -9.0960    -9.4860 nv         1 90K      -0.443200
     31 CAU          0.8130    -8.7390   -11.6580 ca         1 90K      -0.205000
     32 CAT          1.1360    -7.8940   -12.7030 ca         1 90K      -0.030000
     33 CAS          0.7950    -6.5570   -12.6450 ca         1 90K      -0.204000
     34 H1          -0.3610    -0.1330     1.0130 hc         1 90K       0.009700
     35 H2          -0.3610    -0.8110    -0.6210 hc         1 90K       0.009700
     36 H3          -0.3610     0.9430    -0.3910 hc         1 90K       0.009700
     37 H4           1.6560     0.0000     2.1340 ha         1 90K       0.107000
     38 H5           4.1200     0.0010     2.1370 ha         1 90K       0.105000
     39 H6           5.3600     0.0010     0.0080 ha         1 90K       0.114000
     40 H7           0.7320     0.6150    -2.5480 hn         1 90K       0.175500
     41 H8           2.3620    -2.1920    -5.8520 h4         1 90K       0.022100
     42 H9          -1.7110     0.7540    -7.5260 hn         1 90K       0.288800
     43 H10         -0.2800    -2.4790    -8.0950 ha         1 90K       0.170000
     44 H11         -1.8730     1.0040   -10.0080 ha         1 90K       0.106000
     45 H12         -1.9010    -0.1850   -12.1640 ha         1 90K       0.106000
     46 H13         -1.1230    -2.5140   -12.3040 ha         1 90K       0.103000
     47 H14         -0.3490    -4.1840   -12.3180 hn         1 90K       0.171500
     48 H15         -0.7750    -6.5270    -9.6470 ha         1 90K       0.138000
     49 H16         -0.6570    -8.7390    -8.6840 hn         1 90K       0.266300
     50 H17          0.0670   -10.0660    -9.5330 hn         1 90K       0.266300
     51 H18          1.0790    -9.7870   -11.7070 ha         1 90K       0.108000
     52 H19          1.6510    -8.2840   -13.5730 ha         1 90K       0.096000
     53 H20          1.0490    -5.8980   -13.4660 ha         1 90K       0.104000
@<TRIPOS>BOND
     1     1     2 1   
     2     1    34 1   
     3     1    35 1   
     4     1    36 1   
     5     2     3 ar  
     6     2     8 ar  
     7     3     4 ar  
     8     3    37 1   
     9     4     5 ar  
    10     4    38 1   
    11     5     6 ar  
    12     5    39 1   
    13     6     7 1   
    14     6     8 ar  
    15     8     9 1   
    16     9    10 1   
    17     9    40 1   
    18    10    11 2   
    19    10    12 1   
    20    12    13 1   
    21    12    14 2   
    22    13    16 1   
    23    14    15 1   
    24    14    41 1   
    25    15    16 2   
    26    16    17 1   
    27    17    18 1   
    28    17    42 1   
    29    18    19 ar  
    30    18    20 ar  
    31    19    23 ar  
    32    19    43 1   
    33    20    21 ar  
    34    20    44 1   
    35    21    22 ar  
    36    21    45 1   
    37    22    23 ar  
    38    22    46 1   
    39    23    24 1   
    40    24    25 2   
    41    24    26 1   
    42    26    27 1   
    43    26    47 1   
    44    27    28 ar  
    45    27    33 ar  
    46    28    29 ar  
    47    28    48 1   
    48    29    30 1   
    49    29    31 ar  
    50    30    49 1   
    51    30    50 1   
    52    31    32 ar  
    53    31    51 1   
    54    32    33 ar  
    55    32    52 1   
    56    33    53 1   
@<TRIPOS>SUBSTRUCTURE
     1 90K         1 TEMP              0 ****  ****    0 ROOT
