@<TRIPOS>MOLECULE
molecule
   81    83     1     0     0
SMALL
bcc


@<TRIPOS>ATOM
      1 C2           0.0000     0.0000     0.0000 c2         1 90L      -0.154200
      2 C3           1.3180     0.0000     0.0000 ce         1 90L      -0.083200
      3 C4           2.1710     0.0000     1.2230 c3         1 90L      -0.025500
      4 C5           1.3460    -0.2340     2.5030 c3         1 90L      -0.055000
      5 C6           0.0340     0.5510     2.4140 c3         1 90L      -0.066400
      6 O35          9.2350    -1.6110    -7.8450 oh         1 90L      -0.610800
      7 C34          8.0660    -0.7930    -7.7720 c3         1 90L       0.139400
      8 C27          5.3040    -0.4110    -5.1170 c3         1 90L      -0.059700
      9 C26          4.0140     0.4200    -5.1020 c3         1 90L       0.149100
     10 O31          4.3390     1.8070    -4.9990 oh         1 90L      -0.600800
     11 C25          3.1770    -0.0040    -3.8940 c3         1 90L      -0.059200
     12 C28          6.1630     0.0040    -3.9210 c3         1 90L       0.193300
     13 O30          7.2530    -0.9100    -3.7810 oh         1 90L      -0.603800
     14 C29          5.3410    -0.0040    -2.6650 c2         1 90L      -0.184200
     15 C24          4.0230    -0.0040    -2.6540 cf         1 90L      -0.066200
     16 C23          3.3450    -0.0020    -1.3550 cf         1 90L      -0.138000
     17 C22          1.9970    -0.0020    -1.2980 ce         1 90L      -0.130000
     18 C7           2.8010     1.3910     1.4490 c3         1 90L      -0.075400
     19 C8           3.1290     1.4170     2.9570 c3         1 90L      -0.086400
     20 C9           2.2030     0.3870     3.6270 c3         1 90L      -0.061700
     21 C10          1.1030    -1.7250     2.7450 c3         1 90L      -0.086100
     22 C1          -0.8110     0.0070     1.2640 c3         1 90L      -0.046200
     23 C12          3.0360    -0.7000     4.3110 c3         1 90L      -0.070700
     24 C14          3.7540    -0.1040     5.5240 c3         1 90L      -0.089100
     25 C15          4.0700    -1.2470     3.3250 c3         1 90L      -0.091400
     26 C16          4.8080    -2.4270     3.9610 c3         1 90L      -0.084400
     27 C17          5.8410    -2.9730     2.9750 c3         1 90L      -0.064400
     28 C18          6.5790    -4.1530     3.6110 c3         1 90L       0.147800
     29 O21          5.6620    -5.2260     3.8310 oh         1 90L      -0.603800
     30 C20          7.6960    -4.6200     2.6770 c3         1 90L      -0.121100
     31 C19          7.1820    -3.7160     4.9480 c3         1 90L      -0.121100
     32 H1          -0.5200    -0.0050    -0.9510 ha         1 90L       0.120000
     33 H2           2.9470    -0.7510     1.1370 hc         1 90L       0.069700
     34 H3           0.2530     1.5970     2.2350 hc         1 90L       0.045200
     35 H4          -0.5120     0.4450     3.3430 hc         1 90L       0.045200
     36 H5           9.6460    -1.4960    -8.6860 ho         1 90L       0.399000
     37 H6           7.4230    -1.0040    -8.6180 h1         1 90L       0.013200
     38 H7           8.3770     0.2440    -7.8050 h1         1 90L       0.013200
     39 H8           7.9440    -0.8440    -5.6270 hc         1 90L       0.069700
     40 H9           6.9900    -2.0920    -6.4400 hc         1 90L       0.069700
     41 H12          5.0580    -1.4630    -5.0380 hc         1 90L       0.076700
     42 H13          3.4550     0.2380    -6.0120 h1         1 90L       0.035700
     43 H14          3.7820     2.3040    -5.5750 ho         1 90L       0.400000
     44 H15          2.3560     0.6920    -3.7660 hc         1 90L       0.058200
     45 H16          2.7870    -1.0010    -4.0600 hc         1 90L       0.058200
     46 H17          6.5480     1.0030    -4.0890 h1         1 90L       0.057700
     47 H18          7.8740    -0.5660    -3.1610 ho         1 90L       0.401000
     48 H19          5.8610    -0.0130    -1.7150 ha         1 90L       0.123000
     49 H20          3.9250    -0.0010    -0.4410 ha         1 90L       0.136000
     50 H21          1.4160    -0.0030    -2.2120 ha         1 90L       0.128000
     51 H22          2.0910     2.1720     1.2050 hc         1 90L       0.048200
     52 H23          3.7060     1.4960     0.8640 hc         1 90L       0.048200
     53 H24          4.1650     1.1400     3.1140 hc         1 90L       0.045200
     54 H25          2.9380     2.4040     3.3600 hc         1 90L       0.045200
     55 H26          1.5640     0.8810     4.3490 hc         1 90L       0.053700
     56 H27          2.0460    -2.2560     2.7000 hc         1 90L       0.040700
     57 H28          0.6570    -1.8640     3.7220 hc         1 90L       0.040700
     58 H29          0.4350    -2.1100     1.9850 hc         1 90L       0.040700
     59 H30         -1.6820     0.6370     1.1290 hc         1 90L       0.050200
     60 H31         -1.1240    -1.0040     1.4960 hc         1 90L       0.050200
     61 H32          2.3860    -1.5030     4.6360 hc         1 90L       0.058700
     62 H33          3.9090    -0.8760     6.2670 hc         1 90L       0.032700
     63 H34          3.1490     0.6890     5.9480 hc         1 90L       0.032700
     64 H35          4.7110     0.2990     5.2150 hc         1 90L       0.032700
     65 H36          4.7810    -0.4670     3.0780 hc         1 90L       0.048700
     66 H37          3.5690    -1.5780     2.4230 hc         1 90L       0.048700
     67 H38          5.3080    -2.0950     4.8630 hc         1 90L       0.050200
     68 H39          4.0970    -3.2060     4.2080 hc         1 90L       0.050200
     69 H40          5.3410    -3.3050     2.0730 hc         1 90L       0.048700
     70 H41          6.5520    -2.1940     2.7280 hc         1 90L       0.048700
     71 H42          6.1390    -6.0050     4.0630 ho         1 90L       0.401000
     72 H43          8.2350    -5.4380     3.1390 hc         1 90L       0.041533
     73 H44          7.2660    -4.9550     1.7400 hc         1 90L       0.041533
     74 H45          8.3770    -3.7990     2.4890 hc         1 90L       0.041533
     75 H46          7.5740    -2.7100     4.8550 hc         1 90L       0.041533
     76 H47          6.4170    -3.7370     5.7140 hc         1 90L       0.041533
     77 H48          7.9840    -4.3920     5.2200 hc         1 90L       0.041533
     78 C32          6.0690    -0.1500    -6.4150 c3         1 90L      -0.074400
     79 H10          6.3800     0.8870    -6.4480 hc         1 90L       0.041200
     80 C33          7.3010    -1.0550    -6.4730 c3         1 90L      -0.085400
     81 H11          5.4260    -0.3610    -7.2610 hc         1 90L       0.041200
@<TRIPOS>BOND
     1    22     1 1   
     2    22     5 1   
     3     1     2 2   
     4    21     4 1   
     5    30    28 1   
     6     5     4 1   
     7     2    17 1   
     8     2     3 1   
     9    17    16 2   
    10    11     9 1   
    11    11    15 1   
    12     4     3 1   
    13     4    20 1   
    14     9     8 1   
    15     9    10 1   
    16    80     7 1   
    17    80    78 1   
    18     3    18 1   
    19    28    27 1   
    20    28    31 1   
    21    28    29 1   
    22    27    26 1   
    23    16    15 1   
    24     7     6 1   
    25    15    14 2   
    26     8    78 1   
    27     8    12 1   
    28    20    23 1   
    29    20    19 1   
    30    23    25 1   
    31    23    24 1   
    32    18    19 1   
    33    25    26 1   
    34    14    12 1   
    35    12    13 1   
    36     1    32 1   
    37     3    33 1   
    38     5    34 1   
    39     5    35 1   
    40     6    36 1   
    41     7    37 1   
    42     7    38 1   
    43    80    39 1   
    44    80    40 1   
    45    78    79 1   
    46    78    81 1   
    47     8    41 1   
    48     9    42 1   
    49    10    43 1   
    50    11    44 1   
    51    11    45 1   
    52    12    46 1   
    53    13    47 1   
    54    14    48 1   
    55    16    49 1   
    56    17    50 1   
    57    18    51 1   
    58    18    52 1   
    59    19    53 1   
    60    19    54 1   
    61    20    55 1   
    62    21    56 1   
    63    21    57 1   
    64    21    58 1   
    65    22    59 1   
    66    22    60 1   
    67    23    61 1   
    68    24    62 1   
    69    24    63 1   
    70    24    64 1   
    71    25    65 1   
    72    25    66 1   
    73    26    67 1   
    74    26    68 1   
    75    27    69 1   
    76    27    70 1   
    77    29    71 1   
    78    30    72 1   
    79    30    73 1   
    80    30    74 1   
    81    31    75 1   
    82    31    76 1   
    83    31    77 1   
@<TRIPOS>SUBSTRUCTURE
     1 90L         1 TEMP              0 ****  ****    0 ROOT
