@<TRIPOS>MOLECULE
90M
   30    31     1     0     0
SMALL
bcc


@<TRIPOS>ATOM
      1 N1           0.0000     0.0000     0.0000 na         1 90M       0.447400
      2 C2           1.7720     0.0000     1.2940 cc         1 90M      -0.345600
      3 C5           1.3590     0.0000     0.0000 cd         1 90M      -0.249700
      4 C6           0.6170     0.0070     3.5970 ca         1 90M      -0.121500
      5 C8          -0.3080    -0.7710     5.6700 ca         1 90M      -0.137500
      6 C3           0.6270     0.0050     2.1120 cc         1 90M       0.439800
      7 O12          0.4300    -0.0020    -2.4880 o          1 90M      -0.619100
      8 C10          1.5060     0.8030     5.6800 ca         1 90M      -0.137500
      9 C11          1.5190     0.8030     4.3000 ca         1 90M      -0.059500
     10 C12          1.6360    -0.0020    -2.3590 c          1 90M       0.578100
     11 C13          2.5240    -0.0030    -3.5770 c3         1 90M       0.017700
     12 C4B          3.2030     0.0000     1.7700 c3         1 90M       0.108200
     13 N5           2.1820    -0.0010    -1.1270 ns         1 90M       0.015900
     14 C7          -0.2980    -0.7810     4.2900 ca         1 90M      -0.059500
     15 C9           0.5900     0.0220     6.3650 ca         1 90M       0.104900
     16 N2          -0.4330     0.0070     1.3320 nd         1 90M      -0.644800
     17 S13          1.4990    -0.0040    -5.0730 sh         1 90M      -0.331900
     18 H1          -0.5880    -0.0000    -0.8100 hn         1 90M       0.198700
     19 H2          -1.0220    -1.3820     6.2100 ha         1 90M       0.119000
     20 H3           2.2060     1.4210     6.2280 ha         1 90M       0.119000
     21 H4           2.2350     1.4140     3.7650 ha         1 90M       0.117500
     22 H5           3.1490    -0.8880    -3.5670 h1         1 90M       0.045200
     23 H6           3.1500     0.8810    -3.5680 h1         1 90M       0.045200
     24 H7           3.2570    -0.4530     2.7520 hc         1 90M       0.002700
     25 H8           3.8140    -0.5660     1.0770 hc         1 90M       0.002700
     26 H9           3.5660     1.0190     1.8220 hc         1 90M       0.002700
     27 H10          3.1760     0.0320    -1.0200 hn         1 90M       0.178500
     28 H11         -1.0010    -1.4010     3.7470 ha         1 90M       0.117500
     29 H12          2.2820    -0.0050    -6.1450 hs         1 90M       0.176800
     30 F9           0.5770     0.0280     7.7160 f          1 90M      -0.129900
@<TRIPOS>BOND
     1     1     3 1   
     2     1    16 1   
     3     1    18 1   
     4     2     3 2   
     5     2     6 1   
     6     2    12 1   
     7     3    13 1   
     8     4     6 1   
     9     4     9 ar  
    10     4    14 ar  
    11     5    14 ar  
    12     5    15 ar  
    13     5    19 1   
    14     6    16 2   
    15     7    10 2   
    16     8     9 ar  
    17     8    15 ar  
    18     8    20 1   
    19     9    21 1   
    20    10    11 1   
    21    10    13 1   
    22    11    17 1   
    23    11    22 1   
    24    11    23 1   
    25    12    24 1   
    26    12    25 1   
    27    12    26 1   
    28    13    27 1   
    29    14    28 1   
    30    15    30 1   
    31    17    29 1   
@<TRIPOS>SUBSTRUCTURE
     1 90M         1 TEMP              0 ****  ****    0 ROOT
