@<TRIPOS>MOLECULE
molecule
   30    31     1     0     0
SMALL
bcc


@<TRIPOS>ATOM
      1 N1           0.0000     0.0000     0.0000 na         1 90M      -0.034600
      2 C2           1.7720     0.0000     1.2940 cc         1 90M      -0.334600
      3 C5           1.3590     0.0000     0.0000 cd         1 90M       0.070300
      4 C6           0.6170     0.0070     3.5970 ca         1 90M      -0.125500
      5 C8          -0.3080    -0.7710     5.6700 ca         1 90M      -0.172500
      6 C3           0.6270     0.0050     2.1120 cc         1 90M       0.408800
      7 O12          0.4300    -0.0020    -2.4880 o          1 90M      -0.579100
      8 C10          1.5060     0.8030     5.6800 ca         1 90M      -0.172500
      9 C11          1.5190     0.8030     4.3000 ca         1 90M      -0.082000
     10 C12          1.6360    -0.0020    -2.3590 c          1 90M       0.683100
     11 C13          2.5240    -0.0030    -3.5770 c3         1 90M      -0.060300
     12 C4B          3.2030     0.0000     1.7700 c3         1 90M      -0.008800
     13 N5           2.1820    -0.0010    -1.1270 ns         1 90M      -0.452100
     14 C7          -0.2980    -0.7810     4.2900 ca         1 90M      -0.082000
     15 C9           0.5900     0.0220     6.3650 ca         1 90M       0.136900
     16 N2          -0.4330     0.0070     1.3320 nd         1 90M      -0.495800
     17 S13          1.4990    -0.0040    -5.0730 sh         1 90M      -0.323900
     18 H1          -0.5880    -0.0000    -0.8100 hn         1 90M       0.366700
     19 H2          -1.0220    -1.3820     6.2100 ha         1 90M       0.146000
     20 H3           2.2060     1.4210     6.2280 ha         1 90M       0.146000
     21 H4           2.2350     1.4140     3.7650 ha         1 90M       0.147000
     22 H5           3.1490    -0.8880    -3.5670 h1         1 90M       0.078200
     23 H6           3.1500     0.8810    -3.5680 h1         1 90M       0.078200
     24 H7           3.2570    -0.4530     2.7520 hc         1 90M       0.036367
     25 H8           3.8140    -0.5660     1.0770 hc         1 90M       0.036367
     26 H9           3.5660     1.0190     1.8220 hc         1 90M       0.036367
     27 H10          3.1760     0.0320    -1.0200 hn         1 90M       0.343500
     28 H11         -1.0010    -1.4010     3.7470 ha         1 90M       0.147000
     29 H12          2.2820    -0.0050    -6.1450 hs         1 90M       0.201800
     30 F9           0.5770     0.0280     7.7160 f          1 90M      -0.141900
@<TRIPOS>BOND
     1    30    15 1   
     2     5    15 ar  
     3     5    14 ar  
     4    15     8 ar  
     5    14     4 ar  
     6     8     9 ar  
     7     4     9 ar  
     8     4     6 1   
     9     7    10 2   
    10    12     2 1   
    11     6     2 1   
    12     6    16 2   
    13     2     3 2   
    14    16     1 1   
    15    10    13 1   
    16    10    11 1   
    17     3     1 1   
    18     3    13 1   
    19    11    17 1   
    20     1    18 1   
    21     5    19 1   
    22     8    20 1   
    23     9    21 1   
    24    11    22 1   
    25    11    23 1   
    26    12    24 1   
    27    12    25 1   
    28    12    26 1   
    29    13    27 1   
    30    14    28 1   
    31    17    29 1   
@<TRIPOS>SUBSTRUCTURE
     1 90M         1 TEMP              0 ****  ****    0 ROOT
