@<TRIPOS>MOLECULE
molecule
   53    56     1     0     0
SMALL
bcc


@<TRIPOS>ATOM
      1 CBE          0.0000     0.0000     0.0000 c3         1 90N      -0.045800
      2 CBD          1.5070     0.0000     0.0000 ca         1 90N      -0.098300
      3 CBF          2.1980     0.0000     1.1950 ca         1 90N      -0.114000
      4 CBG          3.5810    -0.0000     1.1980 ca         1 90N      -0.130000
      5 CBH          4.2770    -0.0010     0.0020 ca         1 90N      -0.113000
      6 CAB          3.5920    -0.0010    -1.1980 ca         1 90N       0.031400
      7 Cl1          4.4660    -0.0010    -2.6980 cl         1 90N      -0.071400
      8 CAC          2.2010    -0.0060    -1.2020 ca         1 90N       0.063600
      9 NAD          1.5050    -0.0050    -2.4150 ns         1 90N      -0.475100
     10 CAE          1.9160    -0.7920    -3.4290 c          1 90N       0.704700
     11 OBC          2.8560    -1.5490    -3.2690 o          1 90N      -0.566100
     12 CAF          1.2350    -0.7340    -4.7210 cc         1 90N      -0.257000
     13 SBB         -0.1340     0.2970    -5.1290 ss         1 90N      -0.234300
     14 CAG          1.5490    -1.4690    -5.8320 cc         1 90N       0.493200
     15 NAH          0.7820    -1.2290    -6.8640 nc         1 90N      -0.757000
     16 CAI         -0.1610    -0.3430    -6.7140 cd         1 90N       0.728300
     17 NAJ         -1.0550     0.0260    -7.6960 nu         1 90N      -0.740300
     18 CAK         -1.0740    -0.6550    -8.9170 ca         1 90N       0.145600
     19 CBA         -0.6470    -1.9730    -8.9830 ca         1 90N      -0.073000
     20 CAL         -1.5260    -0.0130   -10.0640 ca         1 90N      -0.146000
     21 CAM         -1.5480    -0.6820   -11.2730 ca         1 90N      -0.113000
     22 CAN         -1.1200    -1.9920   -11.3500 ca         1 90N      -0.127000
     23 CAO         -0.6690    -2.6480   -10.2030 ca         1 90N      -0.126600
     24 CAP         -0.2160    -4.0520   -10.2810 c          1 90N       0.666700
     25 OAZ          0.1770    -4.6210    -9.2810 o          1 90N      -0.517100
     26 NAQ         -0.2380    -4.7030   -11.4620 ns         1 90N      -0.531400
     27 CAR          0.1860    -6.0190   -11.5350 ca         1 90N       0.869900
     28 NAS          0.6150    -6.6410   -10.4430 nb         1 90N      -0.836000
     29 NAY          0.1600    -6.6640   -12.6980 nb         1 90N      -0.878000
     30 CAW          0.5650    -7.9200   -12.7700 ca         1 90N       0.780300
     31 CAX          0.5330    -8.6450   -14.0900 c3         1 90N      -0.124400
     32 NAV          0.9960    -8.5400   -11.6860 nb         1 90N      -0.875000
     33 CAT          1.0210    -7.9040   -10.5180 ca         1 90N       0.990900
     34 NAU          1.4720    -8.5530    -9.3860 nv         1 90N      -0.975500
     35 H1          -0.3610     0.9330    -0.4140 hc         1 90N       0.045033
     36 H2          -0.3610    -0.1080     1.0160 hc         1 90N       0.045033
     37 H3          -0.3610    -0.8260    -0.6010 hc         1 90N       0.045033
     38 H4           1.6560     0.0000     2.1330 ha         1 90N       0.135000
     39 H5           4.1200    -0.0000     2.1370 ha         1 90N       0.136000
     40 H6           5.3600    -0.0010     0.0070 ha         1 90N       0.146000
     41 H7           0.7270     0.6110    -2.5440 hn         1 90N       0.324500
     42 H8           2.3610    -2.1870    -5.8540 h4         1 90N       0.074100
     43 H9          -1.6960     0.7780    -7.5330 hn         1 90N       0.464800
     44 H10         -0.2980    -2.4760    -8.0900 ha         1 90N       0.194000
     45 H11         -1.8630     1.0160   -10.0100 ha         1 90N       0.133000
     46 H12         -1.8990    -0.1770   -12.1640 ha         1 90N       0.138000
     47 H13         -1.1390    -2.5130   -12.3000 ha         1 90N       0.128000
     48 H14         -0.5620    -4.2350   -12.2850 hn         1 90N       0.344500
     49 H15          0.0100    -8.0410   -14.8220 hc         1 90N       0.062367
     50 H16          1.5470    -8.8240   -14.4290 hc         1 90N       0.062367
     51 H17          0.0200    -9.5920   -13.9700 hc         1 90N       0.062367
     52 H18          1.7790    -9.5040    -9.4440 hn         1 90N       0.455800
     53 H19          1.4910    -8.0740    -8.5080 hn         1 90N       0.455800
@<TRIPOS>BOND
     1    34    33 1   
     2    32    33 ar  
     3    32    30 ar  
     4    33    28 ar  
     5    31    30 1   
     6    30    29 ar  
     7    28    27 ar  
     8    29    27 ar  
     9    27    26 1   
    10    26    24 1   
    11    24    25 2   
    12    24    23 1   
    13    19    23 ar  
    14    19    18 ar  
    15    23    22 ar  
    16    17    18 1   
    17    17    16 1   
    18    15    16 2   
    19    15    14 1   
    20    18    20 ar  
    21    16    13 1   
    22    14    12 2   
    23    22    21 ar  
    24    20    21 ar  
    25    13    12 1   
    26    12    10 1   
    27     7     6 1   
    28     9    10 1   
    29     9     8 1   
    30    10    11 2   
    31     8     6 ar  
    32     8     2 ar  
    33     6     5 ar  
    34     2     1 1   
    35     2     3 ar  
    36     5     4 ar  
    37     3     4 ar  
    38     1    35 1   
    39     1    36 1   
    40     1    37 1   
    41     3    38 1   
    42     4    39 1   
    43     5    40 1   
    44     9    41 1   
    45    14    42 1   
    46    17    43 1   
    47    19    44 1   
    48    20    45 1   
    49    21    46 1   
    50    22    47 1   
    51    26    48 1   
    52    31    49 1   
    53    31    50 1   
    54    31    51 1   
    55    34    52 1   
    56    34    53 1   
@<TRIPOS>SUBSTRUCTURE
     1 90N         1 TEMP              0 ****  ****    0 ROOT
