@<TRIPOS>MOLECULE
molecule
   81    83     1     0     0
SMALL
bcc


@<TRIPOS>ATOM
      1 C2           0.0000     0.0000     0.0000 c2         1 90O      -0.148200
      2 C3           1.3190     0.0000     0.0000 ce         1 90O      -0.088200
      3 C4           2.1720     0.0000     1.2230 c3         1 90O      -0.024500
      4 C5           1.3480    -0.2350     2.5020 c3         1 90O      -0.055000
      5 C6           0.0360     0.5500     2.4140 c3         1 90O      -0.066400
      6 O35          9.1860     1.6700    -7.8520 oh         1 90O      -0.614800
      7 C34          8.0470     0.8090    -7.7880 c3         1 90O       0.140400
      8 C32          6.0640     0.1480    -6.4190 c3         1 90O      -0.076400
      9 C27          5.3010     0.4090    -5.1200 c3         1 90O      -0.058700
     10 C26          4.0120    -0.4230    -5.1040 c3         1 90O       0.151100
     11 O31          3.2730    -0.1870    -6.3050 oh         1 90O      -0.608800
     12 C25          3.1750     0.0020    -3.8940 c3         1 90O      -0.068200
     13 C28          6.1610    -0.0060    -3.9260 c3         1 90O       0.187300
     14 O30          6.6750    -1.3210    -4.1460 oh         1 90O      -0.602800
     15 C29          5.3400     0.0020    -2.6680 c2         1 90O      -0.202200
     16 C24          4.0210     0.0010    -2.6560 cf         1 90O      -0.054200
     17 C23          3.3440     0.0000    -1.3570 cf         1 90O      -0.149000
     18 C22          1.9960     0.0010    -1.2990 ce         1 90O      -0.120000
     19 C7           2.8010     1.3920     1.4490 c3         1 90O      -0.076400
     20 C8           3.1310     1.4170     2.9570 c3         1 90O      -0.085400
     21 C9           2.2060     0.3860     3.6270 c3         1 90O      -0.061700
     22 C10          1.1070    -1.7270     2.7440 c3         1 90O      -0.099100
     23 C1          -0.8090     0.0050     1.2660 c3         1 90O      -0.047200
     24 C12          3.0400    -0.7000     4.3090 c3         1 90O      -0.075700
     25 C14          3.7580    -0.1050     5.5220 c3         1 90O      -0.092100
     26 C15          4.0740    -1.2460     3.3220 c3         1 90O      -0.089400
     27 C16          4.8130    -2.4260     3.9570 c3         1 90O      -0.084400
     28 C17          5.8460    -2.9710     2.9690 c3         1 90O      -0.064400
     29 C18          6.5850    -4.1520     3.6040 c3         1 90O       0.147800
     30 O21          5.6690    -5.2250     3.8240 oh         1 90O      -0.602800
     31 C20          7.7020    -4.6170     2.6680 c3         1 90O      -0.121100
     32 C19          7.1880    -3.7150     4.9410 c3         1 90O      -0.121100
     33 H1          -0.5200    -0.0040    -0.9500 ha         1 90O       0.122000
     34 H2           2.9490    -0.7500     1.1360 hc         1 90O       0.069700
     35 H3          -0.5090     0.4430     3.3440 hc         1 90O       0.045200
     36 H4           0.2540     1.5960     2.2350 hc         1 90O       0.045200
     37 H5           9.5970     1.5860    -8.6960 ho         1 90O       0.401000
     38 H6           8.3730    -0.2240    -7.8150 h1         1 90O       0.020200
     39 H7           7.3990     1.0050    -8.6340 h1         1 90O       0.020200
     40 H8           7.9320     0.8740    -5.6430 hc         1 90O       0.049700
     41 H9           6.9570     2.1020    -6.4610 hc         1 90O       0.049700
     42 H10          6.3900    -0.8840    -6.4450 hc         1 90O       0.058700
     43 H11          5.4160     0.3440    -7.2650 hc         1 90O       0.058700
     44 H12          5.0550     1.4610    -5.0410 hc         1 90O       0.070700
     45 H13          4.2590    -1.4740    -5.0230 h1         1 90O       0.055700
     46 H14          2.8200    -0.9740    -6.5550 ho         1 90O       0.402000
     47 H15          2.7860     0.9990    -4.0610 hc         1 90O       0.061200
     48 H16          2.3540    -0.6930    -3.7670 hc         1 90O       0.061200
     49 H17          6.9830     0.6910    -3.8190 h1         1 90O       0.043700
     50 H18          7.5110    -1.4080    -3.7190 ho         1 90O       0.402000
     51 H19          5.8600     0.0080    -1.7180 ha         1 90O       0.123000
     52 H20          3.9250     0.0000    -0.4430 ha         1 90O       0.137000
     53 H21          1.4150     0.0010    -2.2130 ha         1 90O       0.131000
     54 H22          2.0890     2.1720     1.2060 hc         1 90O       0.048200
     55 H23          3.7050     1.4980     0.8630 hc         1 90O       0.048200
     56 H24          4.1660     1.1410     3.1130 hc         1 90O       0.045200
     57 H25          2.9380     2.4030     3.3610 hc         1 90O       0.045200
     58 H26          1.5670     0.8790     4.3490 hc         1 90O       0.054700
     59 H27          1.4750    -2.2940     1.8970 hc         1 90O       0.044033
     60 H28          0.0460    -1.9060     2.8650 hc         1 90O       0.044033
     61 H29          1.6300    -2.0360     3.6400 hc         1 90O       0.044033
     62 H30         -1.1200    -1.0070     1.4980 hc         1 90O       0.051200
     63 H31         -1.6810     0.6340     1.1330 hc         1 90O       0.051200
     64 H32          2.3900    -1.5040     4.6330 hc         1 90O       0.065700
     65 H33          3.5020     0.9430     5.6150 hc         1 90O       0.034033
     66 H34          4.8290    -0.2050     5.3930 hc         1 90O       0.034033
     67 H35          3.4520    -0.6330     6.4180 hc         1 90O       0.034033
     68 H36          4.7840    -0.4660     3.0740 hc         1 90O       0.048200
     69 H37          3.5720    -1.5780     2.4210 hc         1 90O       0.048200
     70 H38          5.3140    -2.0950     4.8590 hc         1 90O       0.050200
     71 H39          4.1030    -3.2060     4.2050 hc         1 90O       0.050200
     72 H40          6.5560    -2.1910     2.7220 hc         1 90O       0.048700
     73 H41          5.3440    -3.3020     2.0680 hc         1 90O       0.048700
     74 H42          6.1460    -6.0020     4.0630 ho         1 90O       0.401000
     75 H43          8.3800    -3.7950     2.4780 hc         1 90O       0.041367
     76 H44          8.2440    -5.4330     3.1310 hc         1 90O       0.041367
     77 H45          7.2720    -4.9550     1.7330 hc         1 90O       0.041367
     78 H46          7.9820    -4.3980     5.2190 hc         1 90O       0.041367
     79 H47          7.5900    -2.7130     4.8450 hc         1 90O       0.041367
     80 H48          6.4200    -3.7240     5.7040 hc         1 90O       0.041367
     81 C33          7.2830     1.0700    -6.4880 c3         1 90O      -0.081400
@<TRIPOS>BOND
     1    23     1 1   
     2    23     5 1   
     3     1     2 2   
     4    22     4 1   
     5    31    29 1   
     6     5     4 1   
     7     2    18 1   
     8     2     3 1   
     9    18    17 2   
    10    15    13 1   
    11    15    16 2   
    12     4     3 1   
    13     4    21 1   
    14    13     9 1   
    15    13    14 1   
    16     3    19 1   
    17     8     9 1   
    18     8    81 1   
    19    17    16 1   
    20    29    32 1   
    21    29    28 1   
    22    29    30 1   
    23    16    12 1   
    24    27    28 1   
    25    27    26 1   
    26     9    10 1   
    27     7    81 1   
    28     7     6 1   
    29    21    24 1   
    30    21    20 1   
    31    24    26 1   
    32    24    25 1   
    33    19    20 1   
    34    12    10 1   
    35    10    11 1   
    36     1    33 1   
    37     3    34 1   
    38     5    35 1   
    39     5    36 1   
    40     6    37 1   
    41     7    38 1   
    42     7    39 1   
    43    81    40 1   
    44    81    41 1   
    45     8    42 1   
    46     8    43 1   
    47     9    44 1   
    48    10    45 1   
    49    11    46 1   
    50    12    47 1   
    51    12    48 1   
    52    13    49 1   
    53    14    50 1   
    54    15    51 1   
    55    17    52 1   
    56    18    53 1   
    57    19    54 1   
    58    19    55 1   
    59    20    56 1   
    60    20    57 1   
    61    21    58 1   
    62    22    59 1   
    63    22    60 1   
    64    22    61 1   
    65    23    62 1   
    66    23    63 1   
    67    24    64 1   
    68    25    65 1   
    69    25    66 1   
    70    25    67 1   
    71    26    68 1   
    72    26    69 1   
    73    27    70 1   
    74    27    71 1   
    75    28    72 1   
    76    28    73 1   
    77    30    74 1   
    78    31    75 1   
    79    31    76 1   
    80    31    77 1   
    81    32    78 1   
    82    32    79 1   
    83    32    80 1   
@<TRIPOS>SUBSTRUCTURE
     1 90O         1 TEMP              0 ****  ****    0 ROOT
