@<TRIPOS>MOLECULE
molecule
   68    71     1     0     0
SMALL
bcc


@<TRIPOS>ATOM
      1 C4           0.0000     0.0000     0.0000 ca         1 90P       0.987900
      2 C5           2.0210     0.0000     1.1310 ca         1 90P       0.781200
      3 C6           4.1190     0.0010    -0.1600 c3         1 90P       0.241500
      4 N1           1.3300     0.0000     0.0000 nb         1 90P      -0.879000
      5 C7           5.5100    -0.6090     0.0360 c3         1 90P      -0.094400
      6 C8           6.2780    -0.5510    -1.2870 c3         1 90P       0.166300
      7 N2           3.4000     0.0010     1.1170 nu         1 90P      -0.896900
      8 C10          5.0710     1.4380    -1.9660 c3         1 90P       0.166300
      9 C11          4.2680     1.4390    -0.6650 c3         1 90P      -0.094400
     10 C12          1.3090    -0.0120     2.3550 ca         1 90P      -0.365600
     11 N3           6.3940     0.8450    -1.7260 n3         1 90P      -0.733600
     12 C13          1.9650    -0.0220     3.5920 ca         1 90P      -0.152000
     13 C14          1.2340    -0.0220     4.7450 ca         1 90P       0.090100
     14 N4          -0.6630     0.0000    -1.2160 nh         1 90P      -0.806300
     15 C16          0.1000     0.0000    -2.4660 c3         1 90P       0.240100
     16 C17         -2.1270    -0.0010    -1.2510 c3         1 90P       0.248500
     17 C22         -2.6200     1.2490    -1.9840 c3         1 90P      -0.094900
     18 C21         -4.1490     1.2480    -2.0210 c3         1 90P      -0.077400
     19 C20         -4.6420    -0.0010    -2.7550 c3         1 90P      -0.082400
     20 C19         -4.1490    -1.2500    -2.0210 c3         1 90P      -0.077400
     21 C18         -2.6200    -1.2500    -1.9840 c3         1 90P      -0.094900
     22 N           -0.7130    -0.0060     1.1090 nb         1 90P      -0.851000
     23 C3          -0.1070    -0.0120     2.3070 ca         1 90P       0.532600
     24 C2          -0.8360    -0.0170     3.5020 ca         1 90P      -0.288300
     25 O1           1.8740    -0.0330     5.9460 os         1 90P      -0.315900
     26 C1          -0.1670    -0.0220     4.7050 ca         1 90P       0.173100
     27 O           -0.8720    -0.0270     5.8670 os         1 90P      -0.310900
     28 C           -2.2970    -0.0270     5.7610 c3         1 90P       0.124700
     29 H1           3.5700    -0.5820    -0.8900 h1         1 90P       0.080700
     30 H2           5.4100    -1.6410     0.3500 hc         1 90P       0.055450
     31 H3           6.0470    -0.0460     0.7900 hc         1 90P       0.055450
     32 H4           5.7450    -1.1220    -2.0370 h1         1 90P       0.036950
     33 H5           7.2690    -0.9670    -1.1450 h1         1 90P       0.036950
     34 H6           3.9100    -0.0220     1.9780 hn         1 90P       0.447800
     35 H7           7.2280     1.9740    -3.2820 h1         1 90P       0.033200
     36 H8           6.8680     0.2910    -3.6910 h1         1 90P       0.033200
     37 H10          5.1920     2.4570    -2.3150 h1         1 90P       0.036950
     38 H11          4.5460     0.8550    -2.7130 h1         1 90P       0.036950
     39 H12          4.7890     2.0300     0.0800 hc         1 90P       0.055450
     40 H13          3.2870     1.8600    -0.8470 hc         1 90P       0.055450
     41 H15          3.0410    -0.1420     3.6320 ha         1 90P       0.131000
     42 H16          3.6590     0.8230     5.3750 h1         1 90P       0.038367
     43 H17          3.6810    -0.0110     6.9350 h1         1 90P       0.038367
     44 H18          3.6490    -0.9450     5.4340 h1         1 90P       0.038367
     45 H19         -0.5780    -0.1050    -3.3040 h1         1 90P       0.037700
     46 H20          0.8000    -0.8270    -2.4620 h1         1 90P       0.037700
     47 H21          0.6450     0.9320    -2.5570 h1         1 90P       0.037700
     48 H22         -2.5160    -0.0010    -0.2400 h1         1 90P       0.100700
     49 H23         -2.2730     2.1330    -1.4630 hc         1 90P       0.046200
     50 H24         -2.2360     1.2470    -2.9970 hc         1 90P       0.046200
     51 H25         -4.4960     2.1320    -2.5420 hc         1 90P       0.043200
     52 H26         -4.5330     1.2460    -1.0080 hc         1 90P       0.043200
     53 H27         -5.7250    -0.0010    -2.7780 hc         1 90P       0.040200
     54 H28         -4.2540    -0.0010    -3.7660 hc         1 90P       0.040200
     55 H29         -4.5330    -1.2470    -1.0080 hc         1 90P       0.043200
     56 H30         -4.4970    -2.1340    -2.5420 hc         1 90P       0.043200
     57 H31         -2.2720    -2.1340    -1.4630 hc         1 90P       0.046200
     58 H32         -2.2360    -1.2480    -2.9970 hc         1 90P       0.046200
     59 H33         -1.9190    -0.0160     3.4800 ha         1 90P       0.159000
     60 H34         -2.6200     0.8600     5.2290 h1         1 90P       0.044033
     61 H35         -2.6190    -0.9100     5.2210 h1         1 90P       0.044033
     62 H36         -2.7320    -0.0320     6.7530 h1         1 90P       0.044033
     63 C23          8.6780     0.5590    -2.5620 c3         1 90P      -0.094100
     64 H9           8.7980    -0.5110    -2.6810 hc         1 90P       0.039367
     65 H14          9.3660     1.0750    -3.2210 hc         1 90P       0.039367
     66 H37          8.8850     0.8340    -1.5350 hc         1 90P       0.039367
     67 C9           7.2430     0.9530    -2.9200 c3         1 90P       0.160800
     68 C15          3.3020    -0.0420     5.9210 c3         1 90P       0.128700
@<TRIPOS>BOND
     1    18    19 1
     2    18    17 1
     3    19    20 1
     4    17    16 1
     5    28    27 1
     6    16    14 1
     7    16    21 1
     8    20    21 1
     9    27    26 1
    10    24    26 ar
    11    24    23 ar
    12    22    23 ar
    13    22     1 ar
    14    14     1 1
    15    14    15 1
    16    26    13 ar
    17    23    10 ar
    18     1     4 ar
    19    13    25 1
    20    13    12 ar
    21     4     2 ar
    22    10    12 ar
    23    10     2 ar
    24    25    68 1
    25     2     7 1
    26     9     8 1
    27     9     3 1
    28     7     3 1
    29     8    11 1
    30     3     5 1
    31    11    67 1
    32    11     6 1
    33     5     6 1
    34     3    29 1
    35     5    30 1
    36     5    31 1
    37     6    32 1
    38     6    33 1
    39     7    34 1
    40    67    35 1
    41    67    36 1
    42     8    37 1
    43     8    38 1
    44     9    39 1
    45     9    40 1
    46    12    41 1
    47    68    42 1
    48    68    43 1
    49    68    44 1
    50    15    45 1
    51    15    46 1
    52    15    47 1
    53    16    48 1
    54    17    49 1
    55    17    50 1
    56    18    51 1
    57    18    52 1
    58    19    53 1
    59    19    54 1
    60    20    55 1
    61    20    56 1
    62    21    57 1
    63    21    58 1
    64    24    59 1
    65    28    60 1
    66    28    61 1
    67    28    62 1
    68    67    63 1
    69    63    64 1
    70    63    65 1
    71    63    66 1
@<TRIPOS>SUBSTRUCTURE
     1 90P         1 TEMP              0 ****  ****    0 ROOT
