@<TRIPOS>MOLECULE
molecule
   22    23     1     0     0
SMALL
bcc


@<TRIPOS>ATOM
      1 O3           0.0000     0.0000     0.0000 o          1 90R      -0.483100
      2 C5           1.2160     0.0000     0.0000 c          1 90R       0.562900
      3 C2           1.9550     0.0000     1.2760 ca         1 90R      -0.159600
      4 C6           1.2780    -0.0010     2.4970 ca         1 90R       0.165100
      5 O1          -0.0770    -0.0000     2.5260 oh         1 90R      -0.482100
      6 C9           2.0050    -0.0010     3.6880 ca         1 90R      -0.176000
      7 C10          3.3840    -0.0020     3.6630 ca         1 90R      -0.094000
      8 C8           4.0680    -0.0010     2.4550 ca         1 90R      -0.099000
      9 C1           3.3620    -0.0010     1.2580 ca         1 90R      -0.117600
     10 C4           4.0700    -0.0010    -0.0390 c          1 90R       0.574900
     11 O2           5.2850    -0.0010    -0.0710 o          1 90R      -0.505100
     12 C3           3.2960    -0.0010    -1.2940 cc         1 90R      -0.141400
     13 C11          4.0210    -0.0010    -2.6150 c3         1 90R      -0.048900
     14 C7           1.9560    -0.0050    -1.2760 cd         1 90R      -0.187200
     15 H1          -0.3810    -0.7190     3.0540 ho         1 90R       0.425000
     16 H2           1.4840    -0.0020     4.6380 ha         1 90R       0.144000
     17 H3           3.9380    -0.0020     4.5940 ha         1 90R       0.141000
     18 H4           5.1510    -0.0020     2.4460 ha         1 90R       0.158000
     19 H8           4.6250    -0.8970    -2.6950 hc         1 90R       0.055033
     20 H9           3.2990     0.0210    -3.4230 hc         1 90R       0.055033
     21 H10          4.6590     0.8720    -2.6770 hc         1 90R       0.055033
     22 H11          1.4090    -0.0050    -2.2110 ha         1 90R       0.158000
@<TRIPOS>BOND
     1     5     4 1
     2     1     2 2
     3     4     6 ar
     4     4     3 ar
     5     6     7 ar
     6     2     3 1
     7     2    14 1
     8     3     9 ar
     9     7     8 ar
    10    14    12 2
    11     9     8 ar
    12     9    10 1
    13    10    12 1
    14    10    11 2
    15    12    13 1
    16     5    15 1
    17     6    16 1
    18     7    17 1
    19     8    18 1
    20    13    19 1
    21    13    20 1
    22    13    21 1
    23    14    22 1
@<TRIPOS>SUBSTRUCTURE
     1 90R         1 TEMP              0 ****  ****    0 ROOT
