@<TRIPOS>MOLECULE
molecule
   39    41     1     0     0
SMALL
bcc


@<TRIPOS>ATOM
      1 C4           0.0000     0.0000     0.0000 cc         1 90S       0.306600
      2 C14          4.3330    -0.2580     5.3700 c3         1 90S      -0.112400
      3 C5           1.3960     0.0000     0.0000 cc         1 90S      -0.220300
      4 C6           1.7640     0.0000     1.3340 cd         1 90S      -0.217900
      5 C10          3.1330     0.0010     1.8740 c          1 90S       0.734700
      6 C13          4.5880     0.2560     3.9310 c3         1 90S       0.101000
      7 C15          2.8990     0.2710     5.6390 c3         1 90S       0.074000
      8 C16          2.2200     0.1480     4.2600 c3         1 90S       0.074000
      9 C18          1.5400    -1.7080     6.3740 cc         1 90S      -0.089300
     10 C19          1.0600    -2.1750     7.5500 cd         1 90S      -0.237200
     11 C2          -0.8870     0.0000    -1.2180 c3         1 90S      -0.088000
     12 C20          1.4510    -1.2860     8.5580 cd         1 90S       0.364200
     13 N12          3.2870     0.1270     3.2480 n          1 90S      -0.524800
     14 N17          2.2160    -0.5670     6.6290 na         1 90S       0.068400
     15 N21          2.1410    -0.3200     8.0060 nc         1 90S      -0.498800
     16 N7           0.6000     0.0000     2.0510 na         1 90S       0.023400
     17 N9          -0.4020    -0.0050     1.2460 nd         1 90S      -0.508800
     18 O11          4.0830    -0.1010     1.1220 o          1 90S      -0.559100
     19 H1           4.3580    -1.3400     5.4040 hc         1 90S       0.074700
     20 H2           5.0410     0.1760     6.0660 hc         1 90S       0.074700
     21 H3           2.0330     0.2640    -0.8360 ha         1 90S       0.178000
     22 H4           5.3330    -0.3570     3.4400 h1         1 90S       0.065200
     23 H5           4.8990     1.2940     3.9530 h1         1 90S       0.065200
     24 H6          -1.6800     1.4320    -2.6100 hc         1 90S       0.039033
     25 H7          -1.5980     2.0090    -0.9400 hc         1 90S       0.039033
     26 H9          -0.1220     1.8860    -1.9070 hc         1 90S       0.039033
     27 H10          0.1230    -1.7650    -1.9150 hc         1 90S       0.039033
     28 H11          0.6010    -0.2770    -2.7440 hc         1 90S       0.039033
     29 H12         -0.9600    -1.0280    -3.1040 hc         1 90S       0.039033
     30 H13          2.9280     1.3050     5.9580 h1         1 90S       0.101700
     31 H14          1.5720     1.0000     4.0920 h1         1 90S       0.052200
     32 H15          1.6490    -0.7720     4.2110 h1         1 90S       0.052200
     33 H16          1.4090    -2.1690     5.4020 h4         1 90S       0.182000
     34 H17         -1.8480    -0.4310    -0.9640 hc         1 90S       0.066700
     35 H18          1.2210    -1.3800     9.6120 h4         1 90S       0.063100
     36 H8           0.5370    -0.0010     3.0490 hn         1 90S       0.336700
     37 Br2          0.0420    -3.7490     7.7890 br         1 90S      -0.063100
     38 C3          -1.0860     1.4360    -1.7040 c3         1 90S      -0.086600
     39 C1          -0.2330    -0.8280    -2.3260 c3         1 90S      -0.086600
@<TRIPOS>BOND
     1    38    11 1   
     2    17     1 2   
     3    17    16 1   
     4    11     1 1   
     5    11    39 1   
     6     1     3 1   
     7    16     4 1   
     8     3     4 2   
     9     4     5 1   
    10     5    18 2   
    11     5    13 1   
    12    13     8 1   
    13    13     6 1   
    14     8     7 1   
    15     6     2 1   
    16     2     7 1   
    17     7    14 1   
    18    14     9 1   
    19    14    15 1   
    20     9    10 2   
    21    15    12 2   
    22    10    12 1   
    23    10    37 1   
    24     2    19 1   
    25     2    20 1   
    26     3    21 1   
    27     6    22 1   
    28     6    23 1   
    29    38    24 1   
    30    38    25 1   
    31    38    26 1   
    32    39    27 1   
    33    39    28 1   
    34    39    29 1   
    35     7    30 1   
    36     8    31 1   
    37     8    32 1   
    38     9    33 1   
    39    11    34 1   
    40    12    35 1   
    41    16    36 1   
@<TRIPOS>SUBSTRUCTURE
     1 90S         1 TEMP              0 ****  ****    0 ROOT
