@<TRIPOS>MOLECULE
90S
   39    41     1     0     0
SMALL
bcc


@<TRIPOS>ATOM
      1 C4           0.0000     0.0000     0.0000 cc         1 90S       0.299600
      2 C14          4.3330    -0.2580     5.3700 c3         1 90S      -0.051400
      3 C5           1.3960     0.0000     0.0000 cc         1 90S      -0.183300
      4 C6           1.7640     0.0000     1.3340 cd         1 90S      -0.420900
      5 C10          3.1330     0.0010     1.8740 c          1 90S       0.692700
      6 C13          4.5880     0.2560     3.9310 c3         1 90S       0.067000
      7 C15          2.8990     0.2710     5.6390 c3         1 90S      -0.038000
      8 C16          2.2200     0.1480     4.2600 c3         1 90S       0.025000
      9 C18          1.5400    -1.7080     6.3740 cc         1 90S      -0.238300
     10 C19          1.0600    -2.1750     7.5500 cd         1 90S      -0.200200
     11 C2          -0.8870     0.0000    -1.2180 c3         1 90S      -0.056000
     12 C20          1.4510    -1.2860     8.5580 cd         1 90S       0.423200
     13 N12          3.2870     0.1270     3.2480 n          1 90S      -0.218800
     14 N17          2.2160    -0.5670     6.6290 na         1 90S       0.493400
     15 N21          2.1410    -0.3200     8.0060 nc         1 90S      -0.638800
     16 N7           0.6000     0.0000     2.0510 na         1 90S       0.520400
     17 N9          -0.4020    -0.0050     1.2460 nd         1 90S      -0.633800
     18 O11          4.0830    -0.1010     1.1220 o          1 90S      -0.598100
     19 H1           4.3580    -1.3400     5.4040 hc         1 90S       0.041200
     20 H2           5.0410     0.1760     6.0660 hc         1 90S       0.041200
     21 H3           2.0330     0.2640    -0.8360 ha         1 90S       0.151000
     22 H4           5.3330    -0.3570     3.4400 h1         1 90S       0.032700
     23 H5           4.8990     1.2940     3.9530 h1         1 90S       0.032700
     24 H6          -1.6800     1.4320    -2.6100 hc         1 90S       0.005533
     25 H7          -1.5980     2.0090    -0.9400 hc         1 90S       0.005533
     26 H9          -0.1220     1.8860    -1.9070 hc         1 90S       0.005533
     27 H10          0.1230    -1.7650    -1.9150 hc         1 90S       0.005533
     28 H11          0.6010    -0.2770    -2.7440 hc         1 90S       0.005533
     29 H12         -0.9600    -1.0280    -3.1040 hc         1 90S       0.005533
     30 H13          2.9280     1.3050     5.9580 h1         1 90S       0.069700
     31 H14          1.5720     1.0000     4.0920 h1         1 90S       0.026200
     32 H15          1.6490    -0.7720     4.2110 h1         1 90S       0.026200
     33 H16          1.4090    -2.1690     5.4020 h4         1 90S       0.157000
     34 H17         -1.8480    -0.4310    -0.9640 hc         1 90S       0.034700
     35 H18          1.2210    -1.3800     9.6120 h4         1 90S       0.015100
     36 H8           0.5370    -0.0010     3.0490 hn         1 90S       0.156700
     37 Br2          0.0420    -3.7490     7.7890 br         1 90S      -0.073100
     38 C3          -1.0860     1.4360    -1.7040 c3         1 90S       0.004900
     39 C1          -0.2330    -0.8280    -2.3260 c3         1 90S       0.004900
@<TRIPOS>BOND
     1     1     3 1   
     2     1    11 1   
     3     1    17 2   
     4     2     6 1   
     5     2     7 1   
     6     2    19 1   
     7     2    20 1   
     8     3     4 2   
     9     3    21 1   
    10     4     5 1   
    11     4    16 1   
    12     5    13 1   
    13     5    18 2   
    14     6    13 1   
    15     6    22 1   
    16     6    23 1   
    17     7     8 1   
    18     7    14 1   
    19     7    30 1   
    20     8    13 1   
    21     8    31 1   
    22     8    32 1   
    23     9    10 2   
    24     9    14 1   
    25     9    33 1   
    26    10    12 1   
    27    10    37 1   
    28    11    34 1   
    29    11    38 1   
    30    11    39 1   
    31    12    15 2   
    32    12    35 1   
    33    14    15 1   
    34    16    17 1   
    35    16    36 1   
    36    24    38 1   
    37    25    38 1   
    38    26    38 1   
    39    27    39 1   
    40    28    39 1   
    41    29    39 1   
@<TRIPOS>SUBSTRUCTURE
     1 90S         1 TEMP              0 ****  ****    0 ROOT
