@<TRIPOS>MOLECULE
90T
   53    56     1     0     0
SMALL
bcc


@<TRIPOS>ATOM
      1 OAV          0.0000     0.0000     0.0000 o          1 90T      -0.888800
      2 CAU          1.3430     0.0000     0.0000 c          1 90T       0.985600
      3 OAW          1.9470     0.0010    -1.0470 o          1 90T      -0.888800
      4 CAT          2.0960     0.0000     1.3050 c3         1 90T      -0.155700
      5 CAX          1.7750     1.2700     2.1320 c3         1 90T       0.072000
      6 CAS          3.6210     0.1610     1.0660 c3         1 90T      -0.024400
      7 CAR          4.1090     0.8080     2.3800 c3         1 90T       0.012000
      8 NAQ          2.9490     1.4600     3.0030 n          1 90T      -0.139800
      9 CAP          2.9560     2.1210     4.1780 c          1 90T       0.608700
     10 OAY          1.9570     2.7020     4.5540 o          1 90T      -0.664100
     11 CAO          4.1790     2.1400     5.0080 ca         1 90T      -0.108600
     12 CAZ          5.3710     1.6130     4.5100 ca         1 90T      -0.184000
     13 CAN          4.1470     2.6900     6.2900 ca         1 90T      -0.053000
     14 CAM          5.2900     2.7070     7.0630 ca         1 90T      -0.101000
     15 CAL          6.4700     2.1810     6.5720 ca         1 90T      -0.107000
     16 CAK          6.5150     1.6340     5.2950 ca         1 90T      -0.044400
     17 NAJ          7.7110     1.1090     4.8000 nu         1 90T      -0.215300
     18 CAI          8.9190     1.5630     5.2880 cc         1 90T       0.574300
     19 SBA         10.4440     0.9150     4.8720 ss         1 90T      -0.340300
     20 NAH          9.0560     2.5510     6.1270 nd         1 90T      -0.678000
     21 CAG         10.2730     2.8610     6.4940 cd         1 90T       0.505200
     22 CAF         11.2420     2.0820     5.9250 cc         1 90T      -0.269000
     23 CAE         12.6830     2.1970     6.1480 c          1 90T       0.636700
     24 OBB         13.1150     3.0510     6.9010 o          1 90T      -0.638100
     25 NAD         13.5310     1.3600     5.5200 ns         1 90T      -0.046100
     26 CAC         14.8960     1.3930     5.8200 ca         1 90T      -0.081400
     27 CAB         15.5790     2.6040     5.8270 ca         1 90T      -0.027600
     28 Cl1         14.7370     4.0790     5.4630 cl         1 90T       0.025600
     29 CBG         16.9280     2.6330     6.1240 ca         1 90T      -0.098000
     30 CBF         17.5990     1.4580     6.4140 ca         1 90T      -0.097000
     31 CBE         16.9230     0.2530     6.4080 ca         1 90T      -0.096000
     32 CBC         15.5720     0.2180     6.1180 ca         1 90T      -0.095300
     33 CBD         14.8350    -1.0960     6.1170 c3         1 90T       0.061200
     34 H2           1.8900    -0.8950     1.8800 hc         1 90T       0.026700
     35 H3           1.6520     2.1240     1.4760 h1         1 90T       0.035700
     36 H4           0.8850     1.1150     2.7290 h1         1 90T       0.035700
     37 H5           3.8090     0.8180     0.2250 hc         1 90T       0.031700
     38 H6           4.0890    -0.8050     0.9200 hc         1 90T       0.031700
     39 H7           4.5020     0.0460     3.0410 h1         1 90T       0.008700
     40 H8           4.8730     1.5460     2.1640 h1         1 90T       0.008700
     41 H9           5.4030     1.1880     3.5140 ha         1 90T       0.175000
     42 H10          3.2240     3.1040     6.6790 ha         1 90T       0.127000
     43 H11          5.2620     3.1330     8.0590 ha         1 90T       0.102000
     44 H12          7.3640     2.1960     7.1830 ha         1 90T       0.142000
     45 H13          7.6920     0.3840     4.1100 hn         1 90T       0.288800
     46 H14         10.4930     3.6640     7.1870 h4         1 90T       0.014100
     47 H15         13.1900     0.7430     4.8100 hn         1 90T       0.178500
     48 H16         17.4610     3.5760     6.1300 ha         1 90T       0.113000
     49 H17         18.6580     1.4830     6.6440 ha         1 90T       0.102000
     50 H18         17.4510    -0.6650     6.6380 ha         1 90T       0.106000
     51 H19         13.9590    -1.0190     6.7500 hc         1 90T       0.010033
     52 H20         15.4860    -1.8760     6.4940 hc         1 90T       0.010033
     53 H21         14.5300    -1.3390     5.1060 hc         1 90T       0.010033
@<TRIPOS>BOND
     1     1     2 1   
     2     2     3 1   
     3     2     4 1   
     4     4     5 1   
     5     4     6 1   
     6     4    34 1   
     7     5     8 1   
     8     5    35 1   
     9     5    36 1   
    10     6     7 1   
    11     6    37 1   
    12     6    38 1   
    13     7     8 1   
    14     7    39 1   
    15     7    40 1   
    16     8     9 1   
    17     9    10 2   
    18     9    11 1   
    19    11    12 ar  
    20    11    13 ar  
    21    12    16 ar  
    22    12    41 1   
    23    13    14 ar  
    24    13    42 1   
    25    14    15 ar  
    26    14    43 1   
    27    15    16 ar  
    28    15    44 1   
    29    16    17 1   
    30    17    18 1   
    31    17    45 1   
    32    18    19 1   
    33    18    20 2   
    34    19    22 1   
    35    20    21 1   
    36    21    22 2   
    37    21    46 1   
    38    22    23 1   
    39    23    24 2   
    40    23    25 1   
    41    25    26 1   
    42    25    47 1   
    43    26    27 ar  
    44    26    32 ar  
    45    27    28 1   
    46    27    29 ar  
    47    29    30 ar  
    48    29    48 1   
    49    30    31 ar  
    50    30    49 1   
    51    31    32 ar  
    52    31    50 1   
    53    32    33 1   
    54    33    51 1   
    55    33    52 1   
    56    33    53 1   
@<TRIPOS>SUBSTRUCTURE
     1 90T         1 TEMP              0 ****  ****    0 ROOT
