@<TRIPOS>MOLECULE
molecule
   53    56     1     0     0
SMALL
bcc


@<TRIPOS>ATOM
      1 OAV          0.0000     0.0000     0.0000 o          1 90T      -0.839800
      2 CAU          1.3430     0.0000     0.0000 c          1 90T       0.896600
      3 OAW          1.9470     0.0010    -1.0470 o          1 90T      -0.839800
      4 CAT          2.0960     0.0000     1.3050 c3         1 90T      -0.178700
      5 CAX          1.7750     1.2700     2.1320 c3         1 90T       0.121000
      6 CAS          3.6210     0.1610     1.0660 c3         1 90T      -0.080400
      7 CAR          4.1090     0.8080     2.3800 c3         1 90T       0.073000
      8 NAQ          2.9490     1.4600     3.0030 n          1 90T      -0.480800
      9 CAP          2.9560     2.1210     4.1780 c          1 90T       0.680700
     10 OAY          1.9570     2.7020     4.5540 o          1 90T      -0.621100
     11 CAO          4.1790     2.1400     5.0080 ca         1 90T      -0.109600
     12 CAZ          5.3710     1.6130     4.5100 ca         1 90T      -0.173000
     13 CAN          4.1470     2.6900     6.2900 ca         1 90T      -0.090000
     14 CAM          5.2900     2.7070     7.0630 ca         1 90T      -0.131000
     15 CAL          6.4700     2.1810     6.5720 ca         1 90T      -0.124000
     16 CAK          6.5150     1.6340     5.2950 ca         1 90T       0.121600
     17 NAJ          7.7110     1.1090     4.8000 nu         1 90T      -0.728300
     18 CAI          8.9190     1.5630     5.2880 cc         1 90T       0.748300
     19 SBA         10.4440     0.9150     4.8720 ss         1 90T      -0.250300
     20 NAH          9.0560     2.5510     6.1270 nd         1 90T      -0.769000
     21 CAG         10.2730     2.8610     6.4940 cd         1 90T       0.497200
     22 CAF         11.2420     2.0820     5.9250 cc         1 90T      -0.277000
     23 CAE         12.6830     2.1970     6.1480 c          1 90T       0.715700
     24 OBB         13.1150     3.0510     6.9010 o          1 90T      -0.582100
     25 NAD         13.5310     1.3600     5.5200 ns         1 90T      -0.481100
     26 CAC         14.8960     1.3930     5.8200 ca         1 90T       0.063600
     27 CAB         15.5790     2.6040     5.8270 ca         1 90T       0.039400
     28 Cl1         14.7370     4.0790     5.4630 cl         1 90T      -0.073400
     29 CBG         16.9280     2.6330     6.1240 ca         1 90T      -0.119000
     30 CBF         17.5990     1.4580     6.4140 ca         1 90T      -0.129000
     31 CBE         16.9230     0.2530     6.4080 ca         1 90T      -0.121000
     32 CBC         15.5720     0.2180     6.1180 ca         1 90T      -0.092300
     33 CBD         14.8350    -1.0960     6.1170 c3         1 90T      -0.045800
     34 H2           1.8900    -0.8950     1.8800 hc         1 90T       0.051700
     35 H3           1.6520     2.1240     1.4760 h1         1 90T       0.064200
     36 H4           0.8850     1.1150     2.7290 h1         1 90T       0.064200
     37 H5           3.8090     0.8180     0.2250 hc         1 90T       0.058700
     38 H6           4.0890    -0.8050     0.9200 hc         1 90T       0.058700
     39 H7           4.5020     0.0460     3.0410 h1         1 90T       0.026200
     40 H8           4.8730     1.5460     2.1640 h1         1 90T       0.026200
     41 H9           5.4030     1.1880     3.5140 ha         1 90T       0.178000
     42 H10          3.2240     3.1040     6.6790 ha         1 90T       0.155000
     43 H11          5.2620     3.1330     8.0590 ha         1 90T       0.131000
     44 H12          7.3640     2.1960     7.1830 ha         1 90T       0.161000
     45 H13          7.6920     0.3840     4.1100 hn         1 90T       0.464800
     46 H14         10.4930     3.6640     7.1870 h4         1 90T       0.065100
     47 H15         13.1900     0.7430     4.8100 hn         1 90T       0.327500
     48 H16         17.4610     3.5760     6.1300 ha         1 90T       0.144000
     49 H17         18.6580     1.4830     6.6440 ha         1 90T       0.132000
     50 H18         17.4510    -0.6650     6.6380 ha         1 90T       0.133000
     51 H19         13.9590    -1.0190     6.7500 hc         1 90T       0.045700
     52 H20         15.4860    -1.8760     6.4940 hc         1 90T       0.045700
     53 H21         14.5300    -1.3390     5.1060 hc         1 90T       0.045700
@<TRIPOS>BOND
     1     3     2 1
     2     2     1 1
     3     2     4 1
     4     7     6 1
     5     7     8 1
     6     6     4 1
     7     4     5 1
     8     8     5 1
     9     8     9 1
    10    10     9 2
    11     9    11 1
    12    12    11 ar
    13    12    16 ar
    14    11    13 ar
    15    17    16 1
    16    17    18 1
    17    20    18 2
    18    20    21 1
    19    16    15 ar
    20    18    19 1
    21    21    22 2
    22    13    14 ar
    23    15    14 ar
    24    22    19 1
    25    22    23 1
    26    33    32 1
    27    25    23 1
    28    25    26 1
    29    23    24 2
    30    32    26 ar
    31    32    31 ar
    32    26    27 ar
    33    31    30 ar
    34    27    28 1
    35    27    29 ar
    36    30    29 ar
    37     4    34 1
    38     5    35 1
    39     5    36 1
    40     6    37 1
    41     6    38 1
    42     7    39 1
    43     7    40 1
    44    12    41 1
    45    13    42 1
    46    14    43 1
    47    15    44 1
    48    17    45 1
    49    21    46 1
    50    25    47 1
    51    29    48 1
    52    30    49 1
    53    31    50 1
    54    33    51 1
    55    33    52 1
    56    33    53 1
@<TRIPOS>SUBSTRUCTURE
     1 90T         1 TEMP              0 ****  ****    0 ROOT
