@<TRIPOS>MOLECULE
90V
   43    45     1     0     0
SMALL
bcc


@<TRIPOS>ATOM
      1 C4           0.0000     0.0000     0.0000 cc         1 90V       0.295600
      2 C14          4.2660     0.9590     5.2750 c3         1 90V      -0.049400
      3 C5           1.3970     0.0000     0.0000 cc         1 90V      -0.188300
      4 C6           1.7640     0.0000     1.3350 cd         1 90V      -0.417900
      5 C10          3.1320     0.0020     1.8740 c          1 90V       0.691700
      6 C13          4.5860     0.2500     3.9340 c3         1 90V       0.072000
      7 C3          -1.0930     1.4360    -1.7000 c3         1 90V       0.004900
      8 C1          -0.2280    -0.8220    -2.3290 c3         1 90V       0.004900
      9 C15          2.8930     0.3340     5.6370 c3         1 90V       0.015700
     10 C17          2.2170     0.1620     4.2610 c3         1 90V       0.028000
     11 C19          1.1710     0.7520     7.3090 c          1 90V       0.616100
     12 C2          -0.8870    -0.0000    -1.2190 c3         1 90V      -0.055000
     13 C21          0.3740     1.6880     8.1820 cx         1 90V      -0.221700
     14 C22         -0.6840     1.0690     9.0970 cx         1 90V      -0.047400
     15 C23          0.6130     1.6210     9.6920 cx         1 90V      -0.047400
     16 N12          3.2850     0.1320     3.2500 n          1 90V      -0.218800
     17 N18          2.1180     1.2430     6.4850 ns         1 90V      -0.189900
     18 N7           0.6000    -0.0010     2.0490 na         1 90V       0.525400
     19 N9          -0.4010    -0.0070     1.2450 nd         1 90V      -0.635800
     20 O11          4.0830    -0.0990     1.1220 o          1 90V      -0.606100
     21 O20          0.9620    -0.4420     7.3490 o          1 90V      -0.644100
     22 H142         4.1770     2.0290     5.1340 hc         1 90V       0.030700
     23 H141         5.0090     0.7190     6.0250 hc         1 90V       0.030700
     24 H51          2.0330     0.2640    -0.8360 ha         1 90V       0.150000
     25 H132         5.0040    -0.7320     4.1190 h1         1 90V       0.029200
     26 H131         5.2670     0.8520     3.3440 h1         1 90V       0.029200
     27 H32         -1.6100     2.0030    -0.9350 hc         1 90V       0.004867
     28 H31         -0.1300     1.8920    -1.8980 hc         1 90V       0.004867
     29 H33         -1.6830     1.4320    -2.6080 hc         1 90V       0.004867
     30 H13          0.1320    -1.7580    -1.9200 hc         1 90V       0.004867
     31 H12          0.6040    -0.2660    -2.7440 hc         1 90V       0.004867
     32 H11         -0.9530    -1.0240    -3.1080 hc         1 90V       0.004867
     33 H16          3.0280    -0.6280     6.1180 h1         1 90V       0.072700
     34 H172         1.5550     0.9980     4.0700 h1         1 90V       0.021700
     35 H171         1.6630    -0.7680     4.2370 h1         1 90V       0.021700
     36 H21         -1.8460    -0.4370    -0.9670 hc         1 90V       0.034700
     37 H211         0.1270     2.6730     7.8050 hc         1 90V       0.063700
     38 H222        -0.7600    -0.0110     9.0620 hc         1 90V       0.052700
     39 H221        -1.5690     1.6720     9.2640 hc         1 90V       0.052700
     40 H232         1.3310     0.8780    10.0190 hc         1 90V       0.052700
     41 H231         0.5220     2.5620    10.2210 hc         1 90V       0.052700
     42 H181         2.3160     2.2240     6.4790 hn         1 90V       0.180500
     43 H8           0.5370    -0.0020     3.0480 hn         1 90V       0.162700
@<TRIPOS>BOND
     1     1     3 1   
     2     1    12 1   
     3     1    19 2   
     4     2     6 1   
     5     2     9 1   
     6     2    22 1   
     7     2    23 1   
     8     3     4 2   
     9     3    24 1   
    10     4     5 1   
    11     4    18 1   
    12     5    16 1   
    13     5    20 2   
    14     6    16 1   
    15     6    25 1   
    16     6    26 1   
    17     7    12 1   
    18     7    27 1   
    19     7    28 1   
    20     7    29 1   
    21     8    12 1   
    22     8    30 1   
    23     8    31 1   
    24     8    32 1   
    25     9    10 1   
    26     9    17 1   
    27     9    33 1   
    28    10    16 1   
    29    10    34 1   
    30    10    35 1   
    31    11    13 1   
    32    11    17 1   
    33    11    21 2   
    34    12    36 1   
    35    13    14 1   
    36    13    15 1   
    37    13    37 1   
    38    14    15 1   
    39    14    38 1   
    40    14    39 1   
    41    15    40 1   
    42    15    41 1   
    43    17    42 1   
    44    18    19 1   
    45    18    43 1   
@<TRIPOS>SUBSTRUCTURE
     1 90V         1 TEMP              0 ****  ****    0 ROOT
