@<TRIPOS>MOLECULE
molecule
   69    72     1     0     0
SMALL
bcc


@<TRIPOS>ATOM
      1 CAS          0.0000     0.0000     0.0000 c3         1 90Z      -0.118900
      2 CAT          1.5260     0.0000     0.0000 c3         1 90Z       0.208200
      3 CAU          2.0390     1.1910    -0.8200 c3         1 90Z      -0.083600
      4 CAV          1.9910    -1.2850    -0.7210 c3         1 90Z      -0.083600
      5 NAW          2.0930     0.0000     1.3320 n3         1 90Z      -0.540100
      6 OAX          2.4130    -1.3490     1.7970 oh         1 90Z      -0.431300
      7 CAY          1.5030     0.8120     2.3760 c3         1 90Z       0.208200
      8 CAZ          2.0060     2.2600     2.3030 c3         1 90Z      -0.083600
      9 CBA          1.9480     0.2430     3.7410 c3         1 90Z      -0.083600
     10 CBB         -0.0230     0.8010     2.3490 c3         1 90Z      -0.118900
     11 CAR         -0.5320     1.0850     0.9360 c3         1 90Z       0.118700
     12 NAQ         -2.0000     1.0470     0.9340 ns         1 90Z      -0.581900
     13 CAP         -2.6910     1.7300    -0.0010 c          1 90Z       0.674700
     14 OBC         -2.0990     2.3770    -0.8420 o          1 90Z      -0.603100
     15 CAO         -4.1690     1.6920    -0.0030 ca         1 90Z      -0.124600
     16 CBD         -4.8850     2.3930    -0.9720 ca         1 90Z      -0.074000
     17 CAN         -4.8520     0.9500     0.9640 ca         1 90Z      -0.128000
     18 CAM         -6.2310     0.9150     0.9600 ca         1 90Z      -0.115000
     19 CAL         -6.9420     1.6140     0.0020 ca         1 90Z      -0.149000
     20 CAK         -6.2720     2.3520    -0.9670 ca         1 90Z       0.142600
     21 NAJ         -6.9950     3.0530    -1.9370 nu         1 90Z      -0.741300
     22 CAI         -6.4250     3.3190    -3.1650 cc         1 90Z       0.728300
     23 SBE         -7.1290     4.2980    -4.3740 ss         1 90Z      -0.235300
     24 NAH         -5.2720     2.8620    -3.5620 nd         1 90Z      -0.757000
     25 CAG         -4.8700     3.2070    -4.7580 cd         1 90Z       0.495200
     26 CAF         -5.7440     4.0190    -5.4260 cc         1 90Z      -0.260000
     27 CAE         -5.5600     4.5620    -6.7710 c          1 90Z       0.713700
     28 OBF         -4.5540     4.2940    -7.4030 o          1 90Z      -0.573100
     29 NAD         -6.5040     5.3570    -7.3120 ns         1 90Z      -0.482100
     30 CAC         -6.3850     5.7810    -8.6400 ca         1 90Z       0.057600
     31 CAB         -5.2090     6.3820    -9.0760 ca         1 90Z       0.041400
     32 ClA         -3.8870     6.6070    -7.9740 cl         1 90Z      -0.077400
     33 CBK         -5.0940     6.8000   -10.3880 ca         1 90Z      -0.118000
     34 CBJ         -6.1480     6.6200   -11.2670 ca         1 90Z      -0.124000
     35 CBI         -7.3180     6.0230   -10.8350 ca         1 90Z      -0.120000
     36 CBG         -7.4370     5.5990    -9.5260 ca         1 90Z      -0.090300
     37 CBH         -8.7120     4.9430    -9.0590 c3         1 90Z      -0.044800
     38 H1          -0.3570     0.1900    -1.0050 hc         1 90Z       0.055950
     39 H2          -0.3570    -0.9660     0.3350 hc         1 90Z       0.055950
     40 H3           2.0320     0.9340    -1.8720 hc         1 90Z       0.043283
     41 H4           3.0490     1.4320    -0.5130 hc         1 90Z       0.043283
     42 H5           1.3960     2.0470    -0.6530 hc         1 90Z       0.043283
     43 H6           3.0730    -1.2960    -0.7780 hc         1 90Z       0.043283
     44 H7           1.5760    -1.3080    -1.7220 hc         1 90Z       0.043283
     45 H8           1.6500    -2.1530    -0.1690 hc         1 90Z       0.043283
     46 H9           3.3490    -1.4490     1.8530 ho         1 90Z       0.408000
     47 H10          1.7160     2.7890     3.2030 hc         1 90Z       0.043283
     48 H11          3.0860     2.2630     2.2150 hc         1 90Z       0.043283
     49 H12          1.5720     2.7500     1.4400 hc         1 90Z       0.043283
     50 H13          3.0300     0.2400     3.7960 hc         1 90Z       0.043283
     51 H14          1.5790    -0.7700     3.8480 hc         1 90Z       0.043283
     52 H15          1.5480     0.8580     4.5380 hc         1 90Z       0.043283
     53 H16         -0.3790    -0.1710     2.6680 hc         1 90Z       0.055950
     54 H17         -0.3970     1.5630     3.0230 hc         1 90Z       0.055950
     55 H18         -0.1830     2.0570     0.6080 h1         1 90Z       0.085700
     56 H19         -2.4880     0.5120     1.6250 hn         1 90Z       0.313500
     57 H20         -4.3610     2.9680    -1.7250 ha         1 90Z       0.194000
     58 H21         -4.2990     0.4010     1.7160 ha         1 90Z       0.126000
     59 H22         -6.7590     0.3400     1.7110 ha         1 90Z       0.135000
     60 H23         -8.0250     1.5830     0.0040 ha         1 90Z       0.131000
     61 H24         -7.9220     3.3720    -1.7360 hn         1 90Z       0.463800
     62 H25         -3.9280     2.8790    -5.1810 h4         1 90Z       0.073100
     63 H26         -7.2710     5.6740    -6.7530 hn         1 90Z       0.324500
     64 H27         -4.1790     7.2680   -10.7290 ha         1 90Z       0.147000
     65 H28         -6.0560     6.9500   -12.2950 ha         1 90Z       0.136000
     66 H29         -8.1400     5.8820   -11.5260 ha         1 90Z       0.135000
     67 H30         -8.4880     3.9590    -8.6650 hc         1 90Z       0.045033
     68 H31         -9.1670     5.5470    -8.2840 hc         1 90Z       0.045033
     69 H32         -9.3970     4.8500    -9.8930 hc         1 90Z       0.045033
@<TRIPOS>BOND
     1     8     7 1
     2     3     2 1
     3     9     7 1
     4     6     5 1
     5     7     5 1
     6     7    10 1
     7     5     2 1
     8    14    13 2
     9     2     4 1
    10     2     1 1
    11    10    11 1
    12    11     1 1
    13    11    12 1
    14    13    12 1
    15    13    15 1
    16    16    15 ar
    17    16    20 ar
    18    15    17 ar
    19    21    20 1
    20    21    22 1
    21    20    19 ar
    22    24    22 2
    23    24    25 1
    24    22    23 1
    25    17    18 ar
    26    25    26 2
    27    19    18 ar
    28    23    26 1
    29    26    27 1
    30    29    27 1
    31    29    30 1
    32    27    28 2
    33    37    36 1
    34    30    36 ar
    35    30    31 ar
    36    36    35 ar
    37    32    31 1
    38    31    33 ar
    39    35    34 ar
    40    33    34 ar
    41     1    38 1
    42     1    39 1
    43     3    40 1
    44     3    41 1
    45     3    42 1
    46     4    43 1
    47     4    44 1
    48     4    45 1
    49     6    46 1
    50     8    47 1
    51     8    48 1
    52     8    49 1
    53     9    50 1
    54     9    51 1
    55     9    52 1
    56    10    53 1
    57    10    54 1
    58    11    55 1
    59    12    56 1
    60    16    57 1
    61    17    58 1
    62    18    59 1
    63    19    60 1
    64    21    61 1
    65    25    62 1
    66    29    63 1
    67    33    64 1
    68    34    65 1
    69    35    66 1
    70    37    67 1
    71    37    68 1
    72    37    69 1
@<TRIPOS>SUBSTRUCTURE
     1 90Z         1 TEMP              0 ****  ****    0 ROOT
