@<TRIPOS>MOLECULE
molecule
   42    44     1     0     0
SMALL
bcc


@<TRIPOS>ATOM
      1 S1           0.0000     0.0000     0.0000 ss         1 910      -0.194800
      2 C2           1.7840     0.0000     0.0000 cc         1 910       0.060300
      3 C3           2.0790     0.0000     1.3630 cd         1 910       0.050100
      4 C4           1.0360     0.0080     2.2550 cd         1 910      -0.019900
      5 C5          -0.2590     0.0100     1.7660 cc         1 910      -0.058100
      6 C6           2.6730    -0.0070    -1.1000 c          1 910       0.892200
      7 O7           2.1870    -0.0140    -2.3600 o          1 910      -0.807300
      8 O8           3.8750    -0.0050    -0.9110 o          1 910      -0.807300
      9 C9          -1.5330     0.0180     2.5160 ca         1 910       0.099000
     10 C10         -2.6090    -0.7510     2.0760 ca         1 910      -0.197000
     11 C11         -3.7980    -0.7440     2.7880 ca         1 910       0.188600
     12 C12         -3.9190     0.0390     3.9300 ca         1 910      -0.236000
     13 C13         -2.8530     0.8060     4.3640 ca         1 910      -0.098000
     14 C14         -1.6640     0.8000     3.6660 ca         1 910      -0.164000
     15 Br19         1.3620     0.0180     4.1170 br         1 910      -0.117100
     16 O20          3.3650    -0.0020     1.7970 os         1 910      -0.255900
     17 C21          3.7520    -1.3710     1.9350 c3         1 910       0.020400
     18 C22          5.1780    -1.4430     2.4160 c          1 910       0.907600
     19 O25          5.7590    -2.6370     2.6190 o          1 910      -0.855300
     20 O26          5.7990    -0.4270     2.6200 o          1 910      -0.855300
     21 N29         -4.8780    -1.5180     2.3540 nu         1 910      -0.838600
     22 C30         -6.1370    -1.5040     3.1030 c3         1 910       0.291100
     23 C31         -7.1300    -2.4160     2.4300 ca         1 910      -0.100300
     24 C34         -7.1990    -3.7480     2.7900 ca         1 910      -0.111000
     25 C35         -8.1110    -4.5850     2.1740 ca         1 910      -0.135500
     26 C36         -8.9550    -4.0880     1.1980 ca         1 910      -0.132000
     27 C37         -8.8860    -2.7540     0.8390 ca         1 910      -0.135500
     28 C38         -7.9780    -1.9180     1.4590 ca         1 910      -0.111000
     29 H10         -2.5130    -1.3610     1.1850 ha         1 910       0.140000
     30 H12         -4.8500     0.0450     4.4840 ha         1 910       0.107000
     31 H13         -2.9530     1.4140     5.2550 ha         1 910       0.112000
     32 H14         -0.8320     1.4030     4.0090 ha         1 910       0.152000
     33 H211         3.1040    -1.8590     2.6530 h1         1 910       0.025700
     34 H212         3.6680    -1.8690     0.9770 h1         1 910       0.025700
     35 HN29        -4.7900    -2.0830     1.5320 hn         1 910       0.439800
     36 H301        -5.9590    -1.8470     4.1150 h1         1 910       0.037700
     37 H302        -6.5310    -0.4950     3.1280 h1         1 910       0.037700
     38 H34         -6.5380    -4.1370     3.5550 ha         1 910       0.137500
     39 H35         -8.1650    -5.6300     2.4550 ha         1 910       0.124500
     40 H36         -9.6680    -4.7440     0.7130 ha         1 910       0.121000
     41 H37         -9.5490    -2.3640     0.0760 ha         1 910       0.124500
     42 H38         -7.9240    -0.8730     1.1770 ha         1 910       0.137500
@<TRIPOS>BOND
     1     1     2 1   
     2     1     5 1   
     3     2     3 2   
     4     2     6 1   
     5     3     4 1   
     6     3    16 1   
     7     4     5 2   
     8     4    15 1   
     9     5     9 1   
    10     6     7 1   
    11     6     8 1   
    12     9    10 ar  
    13     9    14 ar  
    14    10    11 ar  
    15    10    29 1   
    16    11    12 ar  
    17    11    21 1   
    18    12    13 ar  
    19    12    30 1   
    20    13    14 ar  
    21    13    31 1   
    22    14    32 1   
    23    16    17 1   
    24    17    18 1   
    25    17    33 1   
    26    17    34 1   
    27    18    19 1   
    28    18    20 1   
    29    21    22 1   
    30    21    35 1   
    31    22    23 1   
    32    22    36 1   
    33    22    37 1   
    34    23    24 ar  
    35    23    28 ar  
    36    24    25 ar  
    37    24    38 1   
    38    25    26 ar  
    39    25    39 1   
    40    26    27 ar  
    41    26    40 1   
    42    27    28 ar  
    43    27    41 1   
    44    28    42 1   
@<TRIPOS>SUBSTRUCTURE
     1 910         1 TEMP              0 ****  ****    0 ROOT
