@<TRIPOS>MOLECULE
911
   15    14     1     0     0
SMALL
bcc


@<TRIPOS>ATOM
      1 P1         -0.1190   -0.0220    0.3620 p5        1 911      1.258200
      2 O2          1.3420    0.0650    0.7730 o         1 911     -0.991500
      3 O3         -0.9730   -0.4450    1.5590 o         1 911     -0.991500
      4 O5         -0.6240    1.3180   -0.1580 o         1 911     -0.991500
      5 C7         -0.4260   -1.3220   -1.0000 c3        1 911     -0.178600
      6 P8         -0.0460   -1.7270   -2.7350 p5        1 911      1.258200
      7 O9         -1.0240   -1.0160   -3.6690 o         1 911     -0.991500
      8 O10         1.3900   -1.4480   -3.1540 o         1 911     -0.991500
      9 O12        -0.3130   -3.2440   -2.7840 o         1 911     -0.991500
     10 O14        -0.0070   -2.4600   -0.2670 oh        1 911     -0.639800
     11 C16        -1.9240   -1.2170   -1.0470 c3        1 911     -0.094100
     12 HO14       -0.1640   -3.2400   -0.8250 ho        1 911      0.356000
     13 H16        -2.1560   -0.2230   -1.4990 hc        1 911     -0.002967
     14 H16A       -2.3790   -1.2760   -0.0260 hc        1 911     -0.002967
     15 H16B       -2.3790   -2.0220   -1.6810 hc        1 911     -0.002967
@<TRIPOS>BOND
     1    1    2 1   
     2    1    3 1   
     3    1    4 1   
     4    1    5 1   
     5    5    6 1   
     6    5   10 1   
     7    5   11 1   
     8    6    7 1   
     9    6    8 1   
    10    6    9 1   
    11   10   12 1   
    12   11   13 1   
    13   11   14 1   
    14   11   15 1   
@<TRIPOS>SUBSTRUCTURE
     1 911         1 TEMP              0 ****  ****    0 ROOT
