@<TRIPOS>MOLECULE
molecule
   15    14     1     0     0
SMALL
bcc


@<TRIPOS>ATOM
      1 P1           0.0000     0.0000     0.0000 p5         1 911       1.127700
      2 O2           1.4800     0.0000     0.0000 o          1 911      -0.957833
      3 O3          -0.5370     0.0000     1.5180 o          1 911      -0.957833
      4 O5          -0.5370     1.3140    -0.7600 o          1 911      -0.957833
      5 C7          -0.6080    -1.4890    -0.8580 c3         1 911      -0.185600
      6 P8           0.0000    -1.4890    -2.5780 p5         1 911       1.127700
      7 O9          -0.3920    -0.2250    -3.2400 o          1 911      -0.957833
      8 O10          1.6050    -1.6220    -2.5790 o          1 911      -0.957833
      9 O12         -0.6420    -2.7330    -3.3730 o          1 911      -0.957833
     10 O14         -0.1310    -2.6550    -0.1850 oh         1 911      -0.654800
     11 C16         -2.1380    -1.4890    -0.8600 c3         1 911      -0.008100
     12 HO14         0.8110    -2.6450    -0.1690 ho         1 911       0.382000
     13 H16         -2.4980    -0.6250    -1.4040 hc         1 911      -0.014300
     14 H16A        -2.5000    -1.4510     0.1610 hc         1 911      -0.014300
     15 H16B        -2.4980    -2.3920    -1.3370 hc         1 911      -0.014300
@<TRIPOS>BOND
     1     2     1 1   
     2     1     4 1   
     3     1     5 1   
     4     1     3 1   
     5    11     5 1   
     6     5    10 1   
     7     5     6 1   
     8     6     7 1   
     9     6     8 1   
    10     6     9 1   
    11    10    12 1   
    12    11    13 1   
    13    11    14 1   
    14    11    15 1   
@<TRIPOS>SUBSTRUCTURE
     1 911         1 TEMP              0 ****  ****    0 ROOT
