@<TRIPOS>MOLECULE
912
   63    66     1     0     0
SMALL
bcc


@<TRIPOS>ATOM
      1 CAS          0.0000     0.0000     0.0000 c3         1 912      -0.045400
      2 CAT          1.5300     0.0000     0.0000 c3         1 912      -0.030900
      3 CAU          2.0410     0.0000     1.4420 c3         1 912       0.165800
      4 CAW          1.5300     1.2500     2.1630 c3         1 912      -0.050100
      5 OAV          3.4690     0.0010     1.4430 oh         1 912      -0.585800
      6 CAX          1.5300    -1.2490     2.1640 c3         1 912      -0.030900
      7 CAY          0.0000    -1.2480     2.1640 c3         1 912      -0.045400
      8 CAR         -0.5100    -1.2490     0.7220 c3         1 912       0.017700
      9 NAQ         -1.9750    -1.2490     0.7220 ns         1 912      -0.197900
     10 CAP         -2.6490    -2.4110     0.8240 c          1 912       0.599700
     11 OAZ         -2.0420    -3.4600     0.9160 o          1 912      -0.650100
     12 CAO         -4.1280    -2.4110     0.8240 ca         1 912      -0.146600
     13 CBA         -4.8260    -3.6110     0.9300 ca         1 912      -0.034000
     14 CAN         -4.8280    -1.2060     0.7240 ca         1 912      -0.109000
     15 CAM         -6.2080    -1.2030     0.7240 ca         1 912      -0.086000
     16 CAL         -6.9070    -2.3910     0.8230 ca         1 912      -0.141000
     17 CAK         -6.2200    -3.6020     0.9290 ca         1 912       0.122400
     18 NAJ         -6.9150    -4.7790     1.0320 ne         1 912      -0.550100
     19 CAI         -7.9410    -4.8660     1.8470 c2         1 912       0.547100
     20 SBB         -8.5460    -3.5610     2.8720 ss         1 912      -0.325300
     21 NAH         -8.7060    -5.9720     2.0300 nu         1 912      -0.445200
     22 CAG         -9.8020    -5.8960     2.9690 c3         1 912       0.158800
     23 CAF         -9.9060    -4.5120     3.6180 c3         1 912      -0.033600
     24 CAE        -11.2340    -3.8790     3.2890 c          1 912       0.577100
     25 OBC        -11.8200    -4.1930     2.2740 o          1 912      -0.614100
     26 NAD        -11.7700    -2.9640     4.1210 ns         1 912      -0.044100
     27 CAC        -12.9480    -2.3000     3.7650 ca         1 912      -0.098400
     28 CAB        -12.8920    -1.1490     2.9870 ca         1 912      -0.018600
     29 ClA        -11.3580    -0.5340     2.4550 cl         1 912      -0.007400
     30 CBH        -14.0590    -0.4950     2.6370 ca         1 912      -0.102000
     31 CBG        -15.2810    -0.9860     3.0610 ca         1 912      -0.070000
     32 CBF        -15.3390    -2.1300     3.8350 ca         1 912      -0.099000
     33 CBD        -14.1780    -2.7910     4.1830 ca         1 912      -0.058300
     34 CBE        -14.2440    -4.0420     5.0210 c3         1 912       0.059200
     35 H1          -0.3600     0.8840     0.5120 hc         1 912       0.024700
     36 H2          -0.3600    -0.0030    -1.0220 hc         1 912       0.024700
     37 H3           1.8900     0.8860    -0.5090 hc         1 912       0.026200
     38 H4           1.8900    -0.8860    -0.5090 hc         1 912       0.026200
     39 H5           0.4490     1.2830     2.1070 hc         1 912       0.016033
     40 H6           1.8370     1.2180     3.2020 hc         1 912       0.016033
     41 H7           1.9440     2.1330     1.6910 hc         1 912       0.016033
     42 H8           3.7830     0.1560     2.3180 ho         1 912       0.393000
     43 H9           1.8890    -2.1330     1.6520 hc         1 912       0.026200
     44 H10          1.8890    -1.2460     3.1860 hc         1 912       0.026200
     45 H11         -0.3590    -0.3610     2.6720 hc         1 912       0.024700
     46 H12         -0.3600    -2.1330     2.6740 hc         1 912       0.024700
     47 H13         -0.1440    -2.1320     0.2120 h1         1 912       0.062700
     48 H14         -2.4750    -0.3880     0.6220 hn         1 912       0.179500
     49 H15         -4.2890    -4.5480     1.0120 ha         1 912       0.137000
     50 H16         -4.2860    -0.2720     0.6460 ha         1 912       0.098000
     51 H17         -6.7450    -0.2660     0.6440 ha         1 912       0.103000
     52 H18         -7.9910    -2.3820     0.8220 ha         1 912       0.135000
     53 H19         -8.5170    -6.8170     1.5270 hn         1 912       0.312800
     54 H20        -10.7260    -6.1100     2.4470 h1         1 912       0.040200
     55 H21         -9.7710    -4.5870     4.6910 h1         1 912       0.069700
     56 H22        -11.3010    -2.7280     4.9730 hn         1 912       0.173500
     57 H23        -14.0160     0.4010     2.0310 ha         1 912       0.118000
     58 H24        -16.1940    -0.4700     2.7880 ha         1 912       0.107000
     59 H25        -16.2980    -2.5120     4.1630 ha         1 912       0.111000
     60 H26        -14.0440    -4.9050     4.3970 hc         1 912       0.012033
     61 H27        -13.5050    -3.9870     5.8110 hc         1 912       0.012033
     62 H28        -15.2320    -4.1330     5.4560 hc         1 912       0.012033
     63 H29         -9.6500    -6.6370     3.7450 h1         1 912       0.040200
@<TRIPOS>BOND
     1     1     2 1   
     2     1     8 1   
     3     1    35 1   
     4     1    36 1   
     5     2     3 1   
     6     2    37 1   
     7     2    38 1   
     8     3     4 1   
     9     3     5 1   
    10     3     6 1   
    11     4    39 1   
    12     4    40 1   
    13     4    41 1   
    14     5    42 1   
    15     6     7 1   
    16     6    43 1   
    17     6    44 1   
    18     7     8 1   
    19     7    45 1   
    20     7    46 1   
    21     8     9 1   
    22     8    47 1   
    23     9    10 1   
    24     9    48 1   
    25    10    11 2   
    26    10    12 1   
    27    12    13 ar  
    28    12    14 ar  
    29    13    17 ar  
    30    13    49 1   
    31    14    15 ar  
    32    14    50 1   
    33    15    16 ar  
    34    15    51 1   
    35    16    17 ar  
    36    16    52 1   
    37    17    18 1   
    38    18    19 2   
    39    19    20 1   
    40    19    21 1   
    41    20    23 1   
    42    21    22 1   
    43    21    53 1   
    44    22    23 1   
    45    22    54 1   
    46    22    63 1   
    47    23    24 1   
    48    23    55 1   
    49    24    25 2   
    50    24    26 1   
    51    26    27 1   
    52    26    56 1   
    53    27    28 ar  
    54    27    33 ar  
    55    28    29 1   
    56    28    30 ar  
    57    30    31 ar  
    58    30    57 1   
    59    31    32 ar  
    60    31    58 1   
    61    32    33 ar  
    62    32    59 1   
    63    33    34 1   
    64    34    60 1   
    65    34    61 1   
    66    34    62 1   
@<TRIPOS>SUBSTRUCTURE
     1 912         1 TEMP              0 ****  ****    0 ROOT
