@<TRIPOS>MOLECULE
913
   25    26     1     0     0
SMALL
bcc


@<TRIPOS>ATOM
      1 C1           0.0000     0.0000     0.0000 c3         1 913       0.037100
      2 N1           1.4690     0.0000     0.0000 nz         1 913       0.075400
      3 C2          -0.5020     0.0000     1.4220 ca         1 913      -0.188300
      4 N2          -1.4280    -2.4100     4.0440 na         1 913       0.584300
      5 C3          -0.7320     1.1970     2.0730 ca         1 913      -0.092000
      6 C4          -1.1930     1.2010     3.3770 ca         1 913      -0.049000
      7 C5          -1.4240     0.0080     4.0320 ca         1 913      -0.084000
      8 C6          -1.1940    -1.1960     3.3810 ca         1 913      -0.089200
      9 C7          -1.9650    -2.5520     5.2770 cc         1 913      -0.252300
     10 C8          -2.0220    -3.8760     5.5500 cd         1 913      -0.286300
     11 C9          -1.5050    -4.5660     4.4490 cd         1 913       0.435200
     12 C11         -0.7360    -1.1970     2.0700 ca         1 913      -0.084000
     13 N8          -1.1530    -3.6890     3.5440 nc         1 913      -0.678800
     14 H11C        -0.3610    -0.8850    -0.5110 hx         1 913       0.083200
     15 H12C        -0.3610     0.8850    -0.5110 hx         1 913       0.083200
     16 H11N         1.8020    -0.1900    -0.9240 hn         1 913       0.223800
     17 H12N         1.8020    -0.7050     0.6270 hn         1 913       0.223800
     18 H3          -0.5520     2.1350     1.5610 ha         1 913       0.111000
     19 H11         -0.6320    -2.1330     1.5340 ha         1 913       0.141000
     20 H7          -2.3730    -1.7570     5.8890 h4         1 913       0.156000
     21 H4          -1.3720     2.1410     3.8850 ha         1 913       0.128000
     22 H5          -1.7850     0.0120     5.0540 ha         1 913       0.134000
     23 H8          -2.4390    -4.3250     6.4440 ha         1 913       0.148000
     24 H9          -1.4090    -5.6380     4.3260 h4         1 913       0.015100
     25 H13          1.8020     0.8910     0.3100 hn         1 913       0.223800
@<TRIPOS>BOND
     1     1     2 1   
     2     1     3 1   
     3     1    14 1   
     4     1    15 1   
     5     2    16 1   
     6     2    17 1   
     7     2    25 1   
     8     3     5 ar  
     9     3    12 ar  
    10     4     8 1   
    11     4     9 1   
    12     4    13 1   
    13     5     6 ar  
    14     5    18 1   
    15     6     7 ar  
    16     6    21 1   
    17     7     8 ar  
    18     7    22 1   
    19     8    12 ar  
    20     9    10 2   
    21     9    20 1   
    22    10    11 1   
    23    10    23 1   
    24    11    13 2   
    25    11    24 1   
    26    12    19 1   
@<TRIPOS>SUBSTRUCTURE
     1 913         1 TEMP              0 ****  ****    0 ROOT
