@<TRIPOS>MOLECULE
molecule
   39    41     1     0     0
SMALL
bcc


@<TRIPOS>ATOM
      1 C1           0.0000     0.0000     0.0000 c3         1 914       0.313100
      2 F1           0.6480    -1.1770     3.3560 f          1 914      -0.173500
      3 N1           1.9440     1.3740     1.8800 na         1 914      -0.267000
      4 O1           1.4410     0.0000     0.0000 os         1 914      -0.390600
      5 P1          -1.5480     1.3230    -2.4910 p5         1 914       1.260600
      6 C2          -0.4110    -0.6670     1.2920 c2         1 914      -0.157200
      7 N2           1.8050     3.5510     1.9690 nc         1 914      -0.618100
      8 O2          -0.4930     1.3400    -0.0440 os         1 914      -0.412600
      9 P2          -2.0990     1.9190    -5.3410 p5         1 914       1.502800
     10 C3           0.6240    -0.6670     2.1040 c2         1 914      -0.003700
     11 N3           3.2140     1.1280     4.0130 nb         1 914      -0.792000
     12 O3          -3.0340     1.6070    -1.9390 o          1 914      -0.833500
     13 P3          -2.3720     3.8680    -7.5590 p5         1 914       1.334900
     14 C4           1.7820     0.0000     1.3990 c3         1 914       0.284000
     15 N4           3.6720     3.1150     5.1010 nb         1 914      -0.794000
     16 O4          -1.3580     2.0450    -3.9170 os         1 914      -0.729800
     17 C5           2.5830     1.7630     3.0300 ca         1 914       0.435800
     18 O5          -3.5640     1.8940    -5.1350 o          1 914      -0.867500
     19 C6           2.4860     3.1630     3.0740 ca         1 914      -0.146200
     20 O6          -1.7090     3.1810    -6.2620 os         1 914      -0.736800
     21 C7           1.4910     2.5020     1.2630 cd         1 914       0.451700
     22 O7          -3.8320     3.9980    -7.3550 o          1 914      -0.872500
     23 C8           3.7430     1.7980     5.0150 ca         1 914       0.611900
     24 O8          -1.3490    -0.1350    -2.6460 o          1 914      -0.833500
     25 C9           3.0610     3.8350     4.1660 ca         1 914       0.655200
     26 O9          -1.6360     0.5610    -6.0700 o          1 914      -0.867500
     27 C10         -0.3240     1.9810    -1.3100 c3         1 914      -0.081800
     28 O10         -1.7270     5.3250    -7.7840 o          1 914      -0.872500
     29 O11         -2.0910     2.9510    -8.8530 o          1 914      -0.872500
     30 H1          -0.3710    -0.5680    -0.8450 h2         1 914       0.186700
     31 H2          -1.4380    -0.8050     1.6070 ha         1 914       0.172000
     32 H4           2.6910    -0.5670     1.5590 h2         1 914       0.081700
     33 HN5          3.7200     5.7800     3.8810 hn         1 914       0.413800
     34 HN5A         2.2280     5.6420     4.7520 hn         1 914       0.413800
     35 H7           0.9520     2.5240     0.3240 h5         1 914       0.144800
     36 H8           4.2510     1.2500     5.7990 h5         1 914       0.017100
     37 H10          0.6750     1.7900    -1.6810 h1         1 914       0.052700
     38 H10A        -0.4700     3.0490    -1.1960 h1         1 914       0.052700
     39 N5           2.9910     5.2130     4.2670 nv         1 914      -1.062500
@<TRIPOS>BOND
     1     4     1 1
     2     8     1 1
     3     6     1 1
     4     1    30 1
     5     2    10 1
     6    17     3 1
     7    21     3 1
     8     3    14 1
     9    14     4 1
    10    24     5 1
    11    16     5 1
    12     5    27 1
    13     5    12 1
    14    10     6 2
    15     6    31 1
    16    19     7 1
    17     7    21 2
    18     8    27 1
    19    16     9 1
    20    18     9 1
    21     9    20 1
    22     9    26 1
    23    14    10 1
    24    23    11 ar
    25    11    17 ar
    26    22    13 1
    27    13    20 1
    28    13    28 1
    29    13    29 1
    30    14    32 1
    31    15    25 ar
    32    15    23 ar
    33    19    17 ar
    34    39    25 1
    35    39    33 1
    36    39    34 1
    37    25    19 ar
    38    21    35 1
    39    23    36 1
    40    27    37 1
    41    27    38 1
@<TRIPOS>SUBSTRUCTURE
     1 914         1 TEMP              0 ****  ****    0 ROOT
