@<TRIPOS>MOLECULE
molecule
   42    43     1     0     0
SMALL
bcc


@<TRIPOS>ATOM
      1 C1           0.0000     0.0000     0.0000 ca         1 915      -0.332500
      2 C2           1.3820     0.0000     0.0000 ca         1 915       0.000000
      3 C3           2.0730     0.0000     1.1970 ca         1 915      -0.141300
      4 C4           1.3810    -0.0050     2.3960 ca         1 915       0.183900
      5 C5          -0.0040    -0.0000     2.3940 ca         1 915      -0.189000
      6 C6          -0.6930    -0.0000     1.1960 ca         1 915      -0.019000
      7 F10          2.0550    -0.0050     3.5660 f          1 915      -0.130900
      8 C11          3.5800     0.0010     1.1970 c3         1 915      -0.045800
      9 S15         -0.8800    -0.0000    -1.5280 sy         1 915       1.425200
     10 N16         -1.1270    -1.5810    -1.9560 n7         1 915      -0.889100
     11 C17         -1.9760    -2.4400    -1.1290 c3         1 915       0.195500
     12 C18         -3.3770    -2.4460    -1.6850 c          1 915       0.656100
     13 N19         -4.4160    -2.7690    -0.8890 ns         1 915      -0.470400
     14 O20         -5.7180    -2.8790    -1.4340 oh         1 915      -0.358100
     15 O21         -3.5700    -2.1610    -2.8470 o          1 915      -0.554100
     16 O22         -2.1670     0.5250    -1.2310 o          1 915      -0.624300
     17 O23          0.0210     0.5250    -2.4920 o          1 915      -0.624300
     18 C27         -1.4200    -3.8650    -1.1340 c3         1 915      -0.076700
     19 C29         -1.3520    -4.3860    -2.5750 c3         1 915      -0.112900
     20 C30         -0.6450    -5.7420    -2.5820 c3         1 915       0.126400
     21 O31          0.6860    -5.5960    -2.0910 os         1 915      -0.398600
     22 C32          0.6020    -5.2630    -0.7070 c3         1 915       0.126400
     23 C33         -0.0040    -3.8660    -0.5470 c3         1 915      -0.112900
     24 H2           1.9230     0.0020    -0.9380 ha         1 915       0.161000
     25 H5          -0.5470    -0.0020     3.3310 ha         1 915       0.151000
     26 H6          -1.7760     0.0020     1.1940 ha         1 915       0.152000
     27 H111         3.9410     0.8910     1.6980 hc         1 915       0.052033
     28 H112         3.9420    -0.0100     0.1760 hc         1 915       0.052033
     29 H113         3.9420    -0.8780     1.7180 hc         1 915       0.052033
     30 H16         -0.7380    -1.9340    -2.8080 hn         1 915       0.473800
     31 H17         -1.9920    -2.0620    -0.1130 h1         1 915       0.061700
     32 H19         -4.2690    -2.9170     0.0900 hn         1 915       0.316500
     33 H20         -6.3560    -2.7980    -0.7440 ho         1 915       0.399000
     34 H27         -2.0570    -4.5120    -0.5440 hc         1 915       0.059700
     35 H291        -2.3570    -4.5000    -2.9650 hc         1 915       0.060200
     36 H292        -0.7970    -3.6860    -3.1870 hc         1 915       0.060200
     37 H301        -0.6140    -6.1250    -3.5950 h1         1 915       0.049200
     38 H302        -1.1880    -6.4330    -1.9480 h1         1 915       0.049200
     39 H321        -0.0260    -5.9870    -0.2010 h1         1 915       0.049200
     40 H322         1.5950    -5.2750    -0.2740 h1         1 915       0.049200
     41 H331        -0.0490    -3.6100     0.5050 hc         1 915       0.060200
     42 H332         0.6070    -3.1450    -1.0750 hc         1 915       0.060200
@<TRIPOS>BOND
     1     1     2 ar  
     2     1     6 ar  
     3     1     9 1   
     4     2     3 ar  
     5     2    24 1   
     6     3     4 ar  
     7     3     8 1   
     8     4     5 ar  
     9     4     7 1   
    10     5     6 ar  
    11     5    25 1   
    12     6    26 1   
    13     8    27 1   
    14     8    28 1   
    15     8    29 1   
    16     9    10 1   
    17     9    16 2   
    18     9    17 2   
    19    10    11 1   
    20    10    30 1   
    21    11    12 1   
    22    11    18 1   
    23    11    31 1   
    24    12    13 1   
    25    12    15 2   
    26    13    14 1   
    27    13    32 1   
    28    14    33 1   
    29    18    19 1   
    30    18    23 1   
    31    18    34 1   
    32    19    20 1   
    33    19    35 1   
    34    19    36 1   
    35    20    21 1   
    36    20    37 1   
    37    20    38 1   
    38    21    22 1   
    39    22    23 1   
    40    22    39 1   
    41    22    40 1   
    42    23    41 1   
    43    23    42 1   
@<TRIPOS>SUBSTRUCTURE
     1 915         1 TEMP              0 ****  ****    0 ROOT
