@<TRIPOS>MOLECULE
molecule
   70    72     1     0     0
SMALL
bcc


@<TRIPOS>ATOM
      1 O21          0.0000     0.0000     0.0000 o          1 916      -0.616100
      2 C6           1.2130     0.0000     0.0000 c          1 916       0.658100
      3 C5           1.9660     0.0000     1.3050 c3         1 916      -0.173100
      4 N7           1.8870    -0.0070    -1.1670 ns         1 916      -0.581900
      5 C8           1.1540    -0.0130    -2.4350 c3         1 916       0.119700
      6 C13          0.2740    -1.2630    -2.5100 c3         1 916      -0.059100
      7 C22          1.1460    -2.4900    -2.5470 ca         1 916      -0.080300
      8 C27          1.5230    -3.1080    -1.3690 ca         1 916      -0.126000
      9 C26          2.3240    -4.2340    -1.4040 ca         1 916      -0.129500
     10 C25          2.7500    -4.7430    -2.6160 ca         1 916      -0.133000
     11 C24          2.3730    -4.1260    -3.7950 ca         1 916      -0.129500
     12 C23          1.5680    -3.0030    -3.7610 ca         1 916      -0.126000
     13 C9           0.2750     1.2360    -2.5240 c3         1 916       0.123100
     14 O1          -0.4390     1.2290    -3.7610 oh         1 916      -0.613800
     15 C10          1.1550     2.4840    -2.4490 c3         1 916       0.142800
     16 N11          0.3040     3.6820    -2.4120 n7         1 916      -0.808200
     17 C12          1.1100     4.8950    -2.2160 c3         1 916       0.243800
     18 C15          1.6140     5.4080    -3.5690 c3         1 916      -0.142400
     19 C2           2.1780     6.8220    -3.3920 c3         1 916       0.152800
     20 C4           2.8070     7.2890    -4.7060 c3         1 916      -0.098100
     21 C3           3.2400     6.8130    -2.2910 c3         1 916      -0.098100
     22 C17          0.2510     5.9870    -1.5910 cc         1 916      -0.205300
     23 C18         -0.6480     5.7820    -0.5490 cd         1 916      -0.098000
     24 C19         -1.3070     6.8610    -0.1380 cc         1 916      -0.061400
     25 S20         -0.8090     8.2560    -1.0840 ss         1 916      -0.122800
     26 C16          0.3040     7.2700    -2.0160 cd         1 916       0.183000
     27 O14          1.1140     7.7080    -3.0250 os         1 916      -0.292900
     28 C28         -2.3280     6.8830     0.9700 c3         1 916       0.013900
     29 C29         -1.6280     7.1670     2.3010 c3         1 916      -0.069000
     30 C32         -0.5980     6.0710     2.5790 c3         1 916      -0.083100
     31 C31         -0.9230     8.5220     2.2290 c3         1 916      -0.083100
     32 C30         -2.6640     7.1900     3.4270 c3         1 916      -0.083100
     33 H1           1.2700     0.1400     2.1230 hc         1 916       0.062033
     34 H2           2.4790    -0.9460     1.4260 hc         1 916       0.062033
     35 H3           2.6890     0.8060     1.3050 hc         1 916       0.062033
     36 H4           2.8880    -0.0030    -1.1670 hn         1 916       0.317500
     37 H5           1.8590    -0.0180    -3.2590 h1         1 916       0.068700
     38 H6          -0.3700    -1.3040    -1.6390 hc         1 916       0.077200
     39 H7          -0.3330    -1.2240    -3.4060 hc         1 916       0.077200
     40 H8           1.1900    -2.7100    -0.4180 ha         1 916       0.132000
     41 H9           2.6190    -4.7170    -0.4800 ha         1 916       0.127500
     42 H10          3.3800    -5.6240    -2.6430 ha         1 916       0.128000
     43 H11          2.7050    -4.5260    -4.7450 ha         1 916       0.127500
     44 H12          1.2730    -2.5200    -4.6850 ha         1 916       0.132000
     45 H13         -0.4290     1.2400    -1.7000 h1         1 916       0.088700
     46 H14         -1.3610     1.3370    -3.5930 ho         1 916       0.412000
     47 H15          1.7620     2.4450    -1.5530 h1         1 916       0.036700
     48 H16          1.7980     2.5250    -3.3190 h1         1 916       0.036700
     49 H17         -0.2060     3.7550    -3.2710 hn         1 916       0.366800
     50 H19          1.9530     4.6800    -1.5710 h1         1 916       0.064700
     51 H20          2.3940     4.7520    -3.9360 hc         1 916       0.059200
     52 H21          0.7930     5.4330    -4.2750 hc         1 916       0.059200
     53 H22          2.0660     7.2500    -5.4950 hc         1 916       0.047867
     54 H23          3.6380     6.6430    -4.9590 hc         1 916       0.047867
     55 H24          3.1620     8.3070    -4.5940 hc         1 916       0.047867
     56 H25          3.9230     5.9880    -2.4540 hc         1 916       0.047867
     57 H26          3.7890     7.7470    -2.3110 hc         1 916       0.047867
     58 H27          2.7600     6.6980    -1.3260 hc         1 916       0.047867
     59 H28         -0.8010     4.8070    -0.1020 ha         1 916       0.161000
     60 H29         -3.0580     7.6590     0.7740 hc         1 916       0.053200
     61 H30         -2.8260     5.9230     1.0220 hc         1 916       0.053200
     62 H31         -0.3040     6.1070     3.6210 hc         1 916       0.035589
     63 H32         -1.0330     5.1030     2.3590 hc         1 916       0.035589
     64 H33          0.2720     6.2260     1.9530 hc         1 916       0.035589
     65 H34         -0.6920     8.8630     3.2310 hc         1 916       0.035589
     66 H35         -1.5720     9.2420     1.7440 hc         1 916       0.035589
     67 H36         -0.0060     8.4230     1.6610 hc         1 916       0.035589
     68 H37         -3.3770     7.9850     3.2450 hc         1 916       0.035589
     69 H38         -3.1830     6.2390     3.4590 hc         1 916       0.035589
     70 H39         -2.1650     7.3610     4.3730 hc         1 916       0.035589
@<TRIPOS>BOND
     1    32    29 1
     2    10     9 ar
     3    10    11 ar
     4    29    31 1
     5    29    28 1
     6    29    30 1
     7     9     8 ar
     8    11    12 ar
     9    28    24 1
    10    12     7 ar
    11     8     7 ar
    12     7     6 1
    13     6     5 1
    14    14    13 1
    15    24    23 2
    16    24    25 1
    17     5    13 1
    18     5     4 1
    19    23    22 1
    20    13    15 1
    21    25    26 1
    22     4     2 1
    23     1     2 2
    24    15    16 1
    25    22    26 2
    26    22    17 1
    27     2     3 1
    28    26    27 1
    29    16    17 1
    30    17    18 1
    31    27    19 1
    32    18    19 1
    33    19    21 1
    34    19    20 1
    35     3    33 1
    36     3    34 1
    37     3    35 1
    38     4    36 1
    39     5    37 1
    40     6    38 1
    41     6    39 1
    42     8    40 1
    43     9    41 1
    44    10    42 1
    45    11    43 1
    46    12    44 1
    47    13    45 1
    48    14    46 1
    49    15    47 1
    50    15    48 1
    51    16    49 1
    52    17    50 1
    53    18    51 1
    54    18    52 1
    55    20    53 1
    56    20    54 1
    57    20    55 1
    58    21    56 1
    59    21    57 1
    60    21    58 1
    61    23    59 1
    62    28    60 1
    63    28    61 1
    64    30    62 1
    65    30    63 1
    66    30    64 1
    67    31    65 1
    68    31    66 1
    69    31    67 1
    70    32    68 1
    71    32    69 1
    72    32    70 1
@<TRIPOS>SUBSTRUCTURE
     1 916         1 TEMP              0 ****  ****    0 ROOT
