@<TRIPOS>MOLECULE
molecule
   37    39     1     0     0
SMALL
bcc


@<TRIPOS>ATOM
      1 C13          0.0000     0.0000     0.0000 ca         1 917      -0.161000
      2 C15          0.0080    -0.0050     2.4010 ca         1 917      -0.028000
      3 C17          2.0880     0.0000     1.2020 ca         1 917      -0.161000
      4 C21         -2.3090     0.0110     5.5730 cc         1 917       0.436300
      5 C01          5.4270    -2.2400    -6.9490 c3         1 917      -0.169100
      6 C02          4.2410    -2.3200    -6.0230 c          1 917       0.659100
      7 C05          2.7960    -1.3620    -4.3100 c3         1 917       0.107000
      8 C06          2.6900    -0.0670    -3.5040 c3         1 917       0.095100
      9 C07          1.4830    -0.1230    -2.5480 c3         1 917       0.063000
     10 C09          3.4170     0.1060    -1.3470 c          1 917       0.832600
     11 C12          1.3900     0.0000     0.0000 ca         1 917       0.094600
     12 C14         -0.6900     0.0010     1.1920 ca         1 917      -0.090000
     13 C16          1.4030    -0.0110     2.3980 ca         1 917      -0.090000
     14 C18         -0.7310    -0.0040     3.6820 cc         1 917      -0.087400
     15 C19         -0.1820    -0.0090     4.9170 cd         1 917       0.366200
     16 N04          3.9490    -1.2850    -5.2110 ns         1 917      -0.588900
     17 N08          2.0890    -0.0020    -1.2130 n          1 917      -0.412000
     18 N20         -1.0580    -0.0060     5.8970 nd         1 917      -0.673000
     19 O03          3.5490    -3.3160    -6.0090 o          1 917      -0.607100
     20 O11          3.8360     0.0780    -2.6170 os         1 917      -0.372900
     21 S22         -2.4820     0.0170     3.8730 ss         1 917      -0.209300
     22 H1          -0.5410     0.0020    -0.9380 ha         1 917       0.160500
     23 H2           3.1710    -0.0020     1.1990 ha         1 917       0.160500
     24 H3          -3.1300     0.0180     6.2790 h5         1 917       0.062100
     25 H4           5.5170    -3.1680    -7.5010 hc         1 917       0.063367
     26 H5           5.2890    -1.4190    -7.6420 hc         1 917       0.063367
     27 H6           6.3270    -2.0770    -6.3700 hc         1 917       0.063367
     28 H7           2.9210    -2.1990    -3.6340 h1         1 917       0.068700
     29 H8           1.8920    -1.5000    -4.8920 h1         1 917       0.068700
     30 H9           2.6110     0.7910    -4.1610 h1         1 917       0.085700
     31 H10          0.9050     0.7780    -2.7160 h1         1 917       0.082200
     32 H11          1.0700    -1.1220    -2.6190 h1         1 917       0.082200
     33 H12         -1.7740     0.0030     1.1920 ha         1 917       0.140500
     34 H13          1.9470    -0.0130     3.3350 ha         1 917       0.140500
     35 H14          0.8880    -0.0220     5.0850 h4         1 917       0.048100
     36 H15          4.5140    -0.4600    -5.2300 hn         1 917       0.322500
     37 O10          4.1720     0.2200    -0.4010 o          1 917      -0.614500
@<TRIPOS>BOND
     1    37    10 2   
     2    10    20 1   
     3    10    17 1   
     4    20     8 1   
     5     3    13 ar  
     6     3    11 ar  
     7    17    11 1   
     8    17     9 1   
     9     8     9 1   
    10     8     7 1   
    11    13     2 ar  
    12    11     1 ar  
    13    21    14 1   
    14    21     4 1   
    15     7    16 1   
    16     2    14 1   
    17     2    12 ar  
    18    16     6 1   
    19    14    15 2   
    20     1    12 ar  
    21     4    18 2   
    22     6    19 2   
    23     6     5 1   
    24    15    18 1   
    25     1    22 1   
    26     3    23 1   
    27     4    24 1   
    28     5    25 1   
    29     5    26 1   
    30     5    27 1   
    31     7    28 1   
    32     7    29 1   
    33     8    30 1   
    34     9    31 1   
    35     9    32 1   
    36    12    33 1   
    37    13    34 1   
    38    15    35 1   
    39    16    36 1   
@<TRIPOS>SUBSTRUCTURE
     1 917         1 TEMP              0 ****  ****    0 ROOT
