@<TRIPOS>MOLECULE
molecule
   49    52     1     0     0
SMALL
bcc


@<TRIPOS>ATOM
      1 C4           0.0000     0.0000     0.0000 cp         1 918       0.555800
      2 C5           1.3940     0.0000     0.0000 ca         1 918      -0.415600
      3 C6           2.0570     0.0000     1.2250 ca         1 918       0.675200
      4 N1           1.3430     0.0000     2.3470 nb         1 918      -0.808000
      5 N3          -0.6470     0.0000     1.1660 nb         1 918      -0.805000
      6 FAZ         -4.2950     0.0180    -0.2540 f          1 918      -0.213967
      7 FBA         -2.5900     1.1500     0.7610 f          1 918      -0.213967
      8 FBB         -2.5990    -1.1350     0.7540 f          1 918      -0.213967
      9 CAN         -2.1530     0.0120    -1.2760 ca         1 918      -0.071300
     10 CAM         -2.8100     0.0240    -2.4890 ca         1 918      -0.273300
     11 CAL         -2.0650     0.0240    -3.6660 ca         1 918       0.709200
     12 NAP         -2.7180     0.0360    -4.8900 nv         1 918      -1.023500
     13 NAK         -0.7400     0.0130    -3.6320 nb         1 918      -0.736000
     14 CAJ         -0.0760     0.0010    -2.4950 ca         1 918       0.484200
     15 CAH         -0.7520     0.0070    -1.2770 cp         1 918      -0.286800
     16 NAI          3.4420     0.0000     1.2740 nh         1 918      -0.688300
     17 CAV          3.9210    -0.0000     2.6690 c3         1 918       0.150800
     18 CAW          4.8350    -1.2330     2.8380 c3         1 918      -0.097900
     19 CAX          5.2750    -1.5440     1.3830 c3         1 918      -0.097900
     20 CAY          3.9960    -1.1850     0.5860 c3         1 918       0.150800
     21 C2           0.0190    -0.0010     2.3100 ca         1 918       0.908900
     22 NAG         -0.6880    -0.0010     3.5010 nh         1 918      -0.680300
     23 CAQ         -2.1370    -0.0010     3.2530 c3         1 918       0.124800
     24 CAR         -2.8790    -0.0620     4.5900 c3         1 918       0.134900
     25 OAS         -2.4690     1.0390     5.4070 os         1 918      -0.426600
     26 CAT         -1.0630     1.0700     5.6690 c3         1 918       0.134900
     27 CAU         -0.3040     1.1420     4.3420 c3         1 918       0.124800
     28 H1           1.9480    -0.0000    -0.9310 ha         1 918       0.149000
     29 H2          -3.8810    -0.1360    -2.5270 ha         1 918       0.161000
     30 H3          -3.5720     0.5480    -4.9970 hn         1 918       0.445300
     31 H4          -2.3370    -0.4690    -5.6660 hn         1 918       0.445300
     32 H5           1.0070    -0.0080    -2.5070 h4         1 918       0.036100
     33 H6           4.4840     0.9040     2.8650 h1         1 918       0.064700
     34 H7           3.0790    -0.0710     3.3470 h1         1 918       0.064700
     35 H8           5.6930    -0.9900     3.4520 hc         1 918       0.054950
     36 H9           4.2790    -2.0650     3.2540 hc         1 918       0.054950
     37 H10          6.1030    -0.9120     1.0870 hc         1 918       0.054950
     38 H11          5.5180    -2.5930     1.2700 hc         1 918       0.054950
     39 H12          4.2490    -0.9400    -0.4390 h1         1 918       0.064700
     40 H13          3.2890    -2.0050     0.6220 h1         1 918       0.064700
     41 H14         -2.4140     0.9050     2.7280 h1         1 918       0.068450
     42 H15         -2.4010    -0.8660     2.6550 h1         1 918       0.068450
     43 H16         -2.6400    -0.9910     5.0930 h1         1 918       0.054950
     44 H17         -3.9460    -0.0020     4.4140 h1         1 918       0.054950
     45 H18         -0.8270     1.9410     6.2680 h1         1 918       0.054950
     46 H19         -0.7750     0.1700     6.2000 h1         1 918       0.054950
     47 H20          0.7620     1.1080     4.5330 h1         1 918       0.068450
     48 H21         -0.5560     2.0650     3.8330 h1         1 918       0.068450
     49 CAO         -2.9230     0.0110     0.0190 c3         1 918       0.690200
@<TRIPOS>BOND
     1    12    11 1   
     2    11    10 ar  
     3    11    13 ar  
     4    10     9 ar  
     5    13    14 ar  
     6     8    49 1   
     7     9    49 1   
     8     9    15 ar  
     9    14    15 ar  
    10    49     6 1   
    11    49     7 1   
    12    15     1 1   
    13     1     5 ar  
    14     1     2 ar  
    15     5    21 ar  
    16    27    26 1   
    17    27    22 1   
    18     2     3 ar  
    19    26    25 1   
    20    21    22 1   
    21    21     4 ar  
    22    22    23 1   
    23     3     4 ar  
    24     3    16 1   
    25    25    24 1   
    26    20    16 1   
    27    20    19 1   
    28    16    17 1   
    29    23    24 1   
    30    19    18 1   
    31    17    18 1   
    32     2    28 1   
    33    10    29 1   
    34    12    30 1   
    35    12    31 1   
    36    14    32 1   
    37    17    33 1   
    38    17    34 1   
    39    18    35 1   
    40    18    36 1   
    41    19    37 1   
    42    19    38 1   
    43    20    39 1   
    44    20    40 1   
    45    23    41 1   
    46    23    42 1   
    47    24    43 1   
    48    24    44 1   
    49    26    45 1   
    50    26    46 1   
    51    27    47 1   
    52    27    48 1   
@<TRIPOS>SUBSTRUCTURE
     1 918         1 TEMP              0 ****  ****    0 ROOT
