@<TRIPOS>MOLECULE
919
   69    73     1     0     0
SMALL
bcc


@<TRIPOS>ATOM
      1 C1           0.0000     0.0000     0.0000 ca         1 919      -0.137200
      2 C2           1.3990     0.0000     0.0000 ca         1 919      -0.138000
      3 C3           2.1000     0.0000     1.1650 ca         1 919      -0.111300
      4 C4           1.4180     0.0000     2.3940 ca         1 919       0.365600
      5 C5           0.0000     0.0010     2.4010 ca         1 919      -0.139300
      6 C6          -0.7000     0.0000     1.1860 ca         1 919      -0.061000
      7 C9           1.4610    -0.0010     4.7020 ca         1 919       0.415200
      8 N10          2.0870    -0.0010     3.5520 nb         1 919      -0.566000
      9 C13         -0.6760     0.0010     3.6360 ca         1 919      -0.050000
     10 C14          0.0700    -0.0000     4.7800 ca         1 919      -0.217300
     11 C22          4.4530     3.4640   -12.1010 ca         1 919       0.432200
     12 N23          4.6110     2.1900   -11.8090 nb         1 919      -0.609000
     13 C24          4.4040     1.7220   -10.5840 ca         1 919       0.359800
     14 C25          4.0120     2.5740    -9.5570 ca         1 919      -0.253300
     15 C26          3.8380     3.9280    -9.8330 ca         1 919       0.161100
     16 C27          4.0650     4.3730   -11.1330 ca         1 919      -0.244300
     17 C34          1.5190     3.6560    -5.9960 ca         1 919      -0.068000
     18 C35          1.8280     4.1750    -7.2380 ca         1 919      -0.099000
     19 C36          3.1530     4.2830    -7.6360 ca         1 919       0.104100
     20 C37          4.1690     3.8700    -6.7860 ca         1 919      -0.141000
     21 C38          3.8610     3.3520    -5.5420 ca         1 919       0.090900
     22 C39          2.5330     3.2430    -5.1440 ca         1 919      -0.101400
     23 C46         -2.2440    -0.4070    -2.7210 cc         1 919       0.394600
     24 C47         -1.2590     0.3960    -3.3020 cc         1 919      -0.328300
     25 C48         -0.3100     0.6420    -2.3570 cd         1 919      -0.235700
     26 N49         -0.6950     0.0060    -1.2170 na         1 919       0.580300
     27 N50         -1.9090    -0.6420    -1.4780 nd         1 919      -0.653800
     28 C58          1.1030     1.9810    -3.7180 c          1 919       0.558100
     29 N60          2.2190     2.7180    -3.8820 ns         1 919      -0.041100
     30 O63          0.3280     1.8360    -4.6440 o          1 919      -0.673100
     31 F68          4.8500     2.9490    -4.7140 f          1 919      -0.124900
     32 O72          4.4080    -0.1550    -9.1890 o          1 919      -0.650100
     33 N74          4.9740    -0.5530   -11.2990 ns         1 919      -0.172900
     34 C76          5.1610    -1.9800   -11.0260 c3         1 919       0.082300
     35 C79         -3.4860    -0.9140    -3.4090 c3         1 919      -0.081300
     36 C81         -3.1120    -2.0510    -4.3620 c3         1 919       0.006900
     37 C83         -4.4740    -1.4310    -2.3620 c3         1 919       0.006900
     38 C85         -4.1310     0.2250    -4.2010 c3         1 919       0.006900
     39 H2           1.9330    -0.0000    -0.9430 ha         1 919       0.114000
     40 H3           3.1830    -0.0000     1.1460 ha         1 919       0.121000
     41 H6          -1.7830     0.0000     1.1810 ha         1 919       0.134000
     42 H9           2.0400    -0.0030     5.6180 h4         1 919      -0.019900
     43 H13         -1.7590     0.0020     3.6780 ha         1 919       0.115000
     44 H14         -0.4200    -0.0000     5.7460 ha         1 919       0.115000
     45 H22          4.6320     3.8070   -13.1130 h4         1 919      -0.017900
     46 H25          3.8440     2.1910    -8.5580 ha         1 919       0.160000
     47 H27          3.9390     5.4190   -11.3830 ha         1 919       0.126000
     48 H34          0.4840     3.5730    -5.6860 ha         1 919       0.157000
     49 H35          1.0360     4.4970    -7.9020 ha         1 919       0.122000
     50 H37          5.2040     3.9550    -7.0970 ha         1 919       0.135000
     51 H47         -1.2530     0.7600    -4.3220 ha         1 919       0.193000
     52 HN56         1.4640     1.5530    -1.7560 hn         1 919       0.171500
     53 HN60         2.8020     2.9240    -3.0950 hn         1 919       0.169500
     54 HN74         5.1180    -0.1970   -12.2230 hn         1 919       0.189500
     55 H76          5.9310    -2.1060   -10.2740 h1         1 919       0.009367
     56 H76A         4.2320    -2.4040   -10.6660 h1         1 919       0.009367
     57 H76B         5.4600    -2.4850   -11.9360 h1         1 919       0.009367
     58 H81         -2.4640    -1.6700    -5.1420 hc         1 919       0.007922
     59 H81A        -2.5960    -2.8290    -3.8120 hc         1 919       0.007922
     60 H81B        -4.0110    -2.4600    -4.8070 hc         1 919       0.007922
     61 H83         -4.7170    -0.6340    -1.6690 hc         1 919       0.007922
     62 H83A        -5.3780    -1.7700    -2.8540 hc         1 919       0.007922
     63 H83B        -4.0270    -2.2560    -1.8200 hc         1 919       0.007922
     64 H85         -4.2390     1.0930    -3.5620 hc         1 919       0.007922
     65 H85A        -3.5050     0.4760    -5.0480 hc         1 919       0.007922
     66 H85B        -5.1070    -0.0870    -4.5530 hc         1 919       0.007922
     67 N56          0.8450     1.4050    -2.5280 ns         1 919      -0.017100
     68 O65          3.4550     4.7930    -8.8590 os         1 919      -0.211200
     69 C70          4.5940     0.2790   -10.3080 c          1 919       0.479600
@<TRIPOS>BOND
     1     1     2 ar  
     2     1     6 ar  
     3     1    26 1   
     4     2     3 ar  
     5     2    39 1   
     6     3     4 ar  
     7     3    40 1   
     8     4     5 ar  
     9     4     8 ar  
    10     5     6 ar  
    11     5     9 ar  
    12     6    41 1   
    13     7     8 ar  
    14     7    10 ar  
    15     7    42 1   
    16     9    10 ar  
    17     9    43 1   
    18    10    44 1   
    19    11    12 ar  
    20    11    16 ar  
    21    11    45 1   
    22    12    13 ar  
    23    13    14 ar  
    24    13    69 1   
    25    14    15 ar  
    26    14    46 1   
    27    15    16 ar  
    28    15    68 1   
    29    16    47 1   
    30    17    18 ar  
    31    17    22 ar  
    32    17    48 1   
    33    18    19 ar  
    34    18    49 1   
    35    19    20 ar  
    36    19    68 1   
    37    20    21 ar  
    38    20    50 1   
    39    21    22 ar  
    40    21    31 1   
    41    22    29 1   
    42    23    24 1   
    43    23    27 2   
    44    23    35 1   
    45    24    25 2   
    46    24    51 1   
    47    25    26 1   
    48    25    67 1   
    49    26    27 1   
    50    28    29 1   
    51    28    30 2   
    52    28    67 1   
    53    29    53 1   
    54    32    69 2   
    55    33    34 1   
    56    33    54 1   
    57    33    69 1   
    58    34    55 1   
    59    34    56 1   
    60    34    57 1   
    61    35    36 1   
    62    35    37 1   
    63    35    38 1   
    64    36    58 1   
    65    36    59 1   
    66    36    60 1   
    67    37    61 1   
    68    37    62 1   
    69    37    63 1   
    70    38    64 1   
    71    38    65 1   
    72    38    66 1   
    73    52    67 1   
@<TRIPOS>SUBSTRUCTURE
     1 919         1 TEMP              0 ****  ****    0 ROOT
