@<TRIPOS>MOLECULE
91B
   35    36     1     0     0
SMALL
bcc


@<TRIPOS>ATOM
      1 C11          0.0000     0.0000     0.0000 ca         1 91B      -0.044000
      2 C10          1.3830     0.0000     0.0000 ca         1 91B      -0.109000
      3 C12         -0.6920     0.0000     1.1940 ca         1 91B      -0.117000
      4 C8           1.3900    -0.0000     2.3940 ca         1 91B      -0.113000
      5 C9           2.0770     0.0000     1.1960 ca         1 91B      -0.185300
      6 C7           0.0010     0.0000     2.3970 ca         1 91B       0.053600
      7 C3          -2.1470     0.0000     3.3790 c3         1 91B       0.135800
      8 C5          -0.2970    -1.1400     4.4450 c3         1 91B       0.135800
      9 C2          -2.8730     0.0810     4.7240 c3         1 91B       0.154800
     10 C6          -1.0240    -1.0600     5.7900 c3         1 91B       0.154800
     11 C15         -3.2080    -1.0590     6.8350 c3         1 91B       0.190100
     12 C13          3.5840    -0.0000     1.1920 c3         1 91B       0.037100
     13 N4          -0.6960     0.0000     3.6070 nh         1 91B      -0.358000
     14 N1          -2.4750    -1.0590     5.5620 n3         1 91B      -0.547600
     15 N14          4.0740     1.3840     1.1900 nz         1 91B       0.074400
     16 H11         -0.5410     0.0000    -0.9390 ha         1 91B       0.123000
     17 H10          1.9240    -0.0000    -0.9390 ha         1 91B       0.108000
     18 H12         -1.7750     0.0000     1.1920 ha         1 91B       0.144000
     19 H8           1.9350    -0.0000     3.3310 ha         1 91B       0.119000
     20 H131         3.9420    -0.5120     0.3070 hx         1 91B       0.081200
     21 H132         3.9470    -0.5110     2.0760 hx         1 91B       0.081200
     22 H31C        -2.4320    -0.9130     2.8700 h1         1 91B       0.025450
     23 H32C        -2.4160     0.8570     2.7730 h1         1 91B       0.025450
     24 H21C        -3.9430     0.0500     4.5590 h1         1 91B       0.021700
     25 H22C        -2.6050     1.0050     5.2230 h1         1 91B       0.021700
     26 H51C         0.7730    -1.1080     4.6110 h1         1 91B       0.025450
     27 H52C        -0.5640    -2.0640     3.9470 h1         1 91B       0.025450
     28 H61C        -0.7390    -0.1470     6.2990 h1         1 91B       0.021700
     29 H62C        -0.7550    -1.9160     6.3970 h1         1 91B       0.021700
     30 H151        -2.9670    -0.1610     7.3900 h1         1 91B       0.007367
     31 H152        -4.2730    -1.0870     6.6380 h1         1 91B       0.007367
     32 H153        -2.9250    -1.9290     7.4150 h1         1 91B       0.007367
     33 H141         3.5970     1.9080     1.8970 hn         1 91B       0.222800
     34 H142         5.0570     1.3900     1.3770 hn         1 91B       0.222800
     35 H143         3.9020     1.7980     0.2950 hn         1 91B       0.222800
@<TRIPOS>BOND
     1     1     2 ar  
     2     1     3 ar  
     3     1    16 1   
     4     2     5 ar  
     5     2    17 1   
     6     3     6 ar  
     7     3    18 1   
     8     4     5 ar  
     9     4     6 ar  
    10     4    19 1   
    11     5    12 1   
    12     6    13 1   
    13     7     9 1   
    14     7    13 1   
    15     7    22 1   
    16     7    23 1   
    17     8    10 1   
    18     8    13 1   
    19     8    26 1   
    20     8    27 1   
    21     9    14 1   
    22     9    24 1   
    23     9    25 1   
    24    10    14 1   
    25    10    28 1   
    26    10    29 1   
    27    11    14 1   
    28    11    30 1   
    29    11    31 1   
    30    11    32 1   
    31    12    15 1   
    32    12    20 1   
    33    12    21 1   
    34    15    33 1   
    35    15    34 1   
    36    15    35 1   
@<TRIPOS>SUBSTRUCTURE
     1 91B         1 TEMP              0 ****  ****    0 ROOT
