@<TRIPOS>MOLECULE
molecule
   66    69     1     0     0
SMALL
bcc


@<TRIPOS>ATOM
      1 C10          0.0000     0.0000     0.0000 ca         1 91D      -0.052000
      2 C15         -4.3560     1.2600    -1.3670 c3         1 91D       0.106000
      3 C17         -6.3730    -0.0030    -1.9570 c          1 91D       0.663100
      4 C21         -4.3550    -1.2640    -1.3660 c3         1 91D       0.106000
      5 C22         -3.6820    -1.2140     0.0100 c3         1 91D       0.151300
      6 C24         -1.9940     0.0010     3.5770 ca         1 91D       0.957900
      7 C26         -1.9180     0.0000     6.0420 c3         1 91D       0.259800
      8 C28         -2.1250    -0.0010     8.5140 c          1 91D       0.665100
      9 C02          4.2540     1.0880     0.6450 ca         1 91D       0.158900
     10 C03          5.6370     1.0810     0.6230 ca         1 91D      -0.170000
     11 C04          6.3320    -0.0050     1.1220 ca         1 91D      -0.096000
     12 C05          5.6510    -1.0880     1.6480 ca         1 91D      -0.147000
     13 C06          4.2710    -1.0930     1.6750 ca         1 91D      -0.081000
     14 C07          3.5630    -0.0000     1.1780 cp         1 91D      -0.090000
     15 C08          2.0800     0.0000     1.2050 cp         1 91D       0.010000
     16 C09          1.3630     0.0000     0.0000 ca         1 91D       0.005400
     17 C11         -0.6960     0.0000     1.2150 ca         1 91D      -0.308600
     18 C12         -2.1130     0.0010     1.2640 ca         1 91D       0.704200
     19 N13         -2.8600    -0.0010     0.1050 nh         1 91D      -0.724300
     20 C14         -3.6840     1.2110     0.0090 c3         1 91D       0.151300
     21 N16         -5.0800    -0.0020    -1.5790 n          1 91D      -0.498800
     22 C18         -7.0970     1.3010    -2.1690 c3         1 91D      -0.159400
     23 C19         -8.5410     1.0210    -2.5920 c3         1 91D      -0.077100
     24 O20         -6.9550    -1.0530    -2.1270 o          1 91D      -0.608100
     25 N23         -2.7010     0.0010     2.4500 nb         1 91D      -0.833000
     26 N25         -2.6680     0.0000     4.7840 nu         1 91D      -0.902900
     27 C27         -2.8970    -0.0010     7.2190 c3         1 91D      -0.178400
     28 N29         -2.7830    -0.0010     9.6910 n          1 91D      -0.498800
     29 C30         -2.0330    -0.0010    10.9490 c3         1 91D       0.100300
     30 C31         -4.2470    -0.0010     9.7100 c3         1 91D       0.100300
     31 O32         -0.9120    -0.0000     8.4970 o          1 91D      -0.599100
     32 N33         -0.6740     0.0010     3.5900 nb         1 91D      -0.797000
     33 C34          0.0170     0.0010     2.4400 ca         1 91D       0.494600
     34 C35          1.4160     0.0010     2.4210 ca         1 91D      -0.176300
     35 Cl36         2.2200    -0.0000    -1.5090 cl         1 91D      -0.099400
     36 H1          -0.5430    -0.0000    -0.9370 ha         1 91D       0.163000
     37 H2          -3.6020     1.3790    -2.1360 h1         1 91D       0.064450
     38 H3          -5.0530     2.0890    -1.4020 h1         1 91D       0.064450
     39 H4          -5.0510    -2.0930    -1.4000 h1         1 91D       0.064450
     40 H5          -3.6000    -1.3830    -2.1340 h1         1 91D       0.064450
     41 H6          -3.0530    -2.0870     0.1350 h1         1 91D       0.057700
     42 H7          -4.4420    -1.1950     0.7820 h1         1 91D       0.057700
     43 H8          -1.2950    -0.8840     6.0910 h1         1 91D       0.070700
     44 H9          -1.2950     0.8850     6.0920 h1         1 91D       0.070700
     45 H10          6.1760     1.9270     0.2130 ha         1 91D       0.147000
     46 H11          7.4160    -0.0060     1.1030 ha         1 91D       0.136000
     47 H12          6.2030    -1.9360     2.0350 ha         1 91D       0.136000
     48 H13          3.7400    -1.9420     2.0890 ha         1 91D       0.144000
     49 H14         -4.4430     1.1920     0.7810 h1         1 91D       0.057700
     50 H15         -3.0550     2.0850     0.1340 h1         1 91D       0.057700
     51 H16         -7.0950     1.8700    -1.2470 hc         1 91D       0.057700
     52 H17         -6.5980     1.8700    -2.9440 hc         1 91D       0.057700
     53 H18         -9.0560     1.9590    -2.7610 hc         1 91D       0.044033
     54 H19         -8.5430     0.4380    -3.5050 hc         1 91D       0.044033
     55 H20         -9.0450     0.4680    -1.8090 hc         1 91D       0.044033
     56 H21         -3.6690     0.0010     4.7980 hn         1 91D       0.450800
     57 H22         -3.5210     0.8840     7.1700 hc         1 91D       0.064200
     58 H23         -3.5200    -0.8850     7.1700 hc         1 91D       0.064200
     59 H24         -1.4210    -0.8930    11.0040 h1         1 91D       0.041367
     60 H25         -2.7260     0.0130    11.7820 h1         1 91D       0.041367
     61 H26         -1.3990     0.8760    10.9910 h1         1 91D       0.041367
     62 H27         -4.5950    -0.0060    10.7370 h1         1 91D       0.041367
     63 H28         -4.6160     0.8860     9.2090 h1         1 91D       0.041367
     64 H29         -4.6150    -0.8830     9.2000 h1         1 91D       0.041367
     65 H30          1.9700     0.1410     3.3410 ha         1 91D       0.164000
     66 F01          3.5750     2.1490     0.1560 f          1 91D      -0.131900
@<TRIPOS>BOND
     1     4     5 1
     2     4    21 1
     3    22    23 1
     4    22     3 1
     5     5    19 1
     6    21     3 1
     7    21     2 1
     8     3    24 2
     9    13    12 ar
    10    13    14 ar
    11    19    18 1
    12    19    20 1
    13    12    11 ar
    14    18    25 ar
    15    18    17 ar
    16    25     6 ar
    17     1    17 ar
    18     1    16 ar
    19    17    33 ar
    20     6    26 1
    21     6    32 ar
    22    26     7 1
    23     2    20 1
    24    35    16 1
    25    16    15 ar
    26    33    32 ar
    27    33    34 ar
    28    15    34 ar
    29    15    14 1
    30    14     9 ar
    31     7    27 1
    32    11    10 ar
    33    30    28 1
    34    27     8 1
    35     9    10 ar
    36     9    66 1
    37    28     8 1
    38    28    29 1
    39     8    31 2
    40     1    36 1
    41     2    37 1
    42     2    38 1
    43     4    39 1
    44     4    40 1
    45     5    41 1
    46     5    42 1
    47     7    43 1
    48     7    44 1
    49    10    45 1
    50    11    46 1
    51    12    47 1
    52    13    48 1
    53    20    49 1
    54    20    50 1
    55    22    51 1
    56    22    52 1
    57    23    53 1
    58    23    54 1
    59    23    55 1
    60    26    56 1
    61    27    57 1
    62    27    58 1
    63    29    59 1
    64    29    60 1
    65    29    61 1
    66    30    62 1
    67    30    63 1
    68    30    64 1
    69    34    65 1
@<TRIPOS>SUBSTRUCTURE
     1 91D         1 TEMP              0 ****  ****    0 ROOT
