@<TRIPOS>MOLECULE
91D
   66    69     1     0     0
SMALL
bcc


@<TRIPOS>ATOM
      1 C10          0.0000     0.0000     0.0000 ca         1 91D      -0.030000
      2 C15         -4.3560     1.2600    -1.3670 c3         1 91D       0.048500
      3 C17         -6.3730    -0.0030    -1.9570 c          1 91D       0.590100
      4 C21         -4.3550    -1.2640    -1.3660 c3         1 91D       0.048500
      5 C22         -3.6820    -1.2140     0.0100 c3         1 91D       0.135300
      6 C24         -1.9940     0.0010     3.5770 ca         1 91D       0.731900
      7 C26         -1.9180     0.0000     6.0420 c3         1 91D       0.177800
      8 C28         -2.1250    -0.0010     8.5140 c          1 91D       0.588100
      9 C02          4.2540     1.0880     0.6450 ca         1 91D       0.125900
     10 C03          5.6370     1.0810     0.6230 ca         1 91D      -0.133000
     11 C04          6.3320    -0.0050     1.1220 ca         1 91D      -0.070000
     12 C05          5.6510    -1.0880     1.6480 ca         1 91D      -0.115000
     13 C06          4.2710    -1.0930     1.6750 ca         1 91D      -0.055000
     14 C07          3.5630    -0.0000     1.1780 cp         1 91D      -0.079000
     15 C08          2.0800     0.0000     1.2050 cp         1 91D       0.013000
     16 C09          1.3630     0.0000     0.0000 ca         1 91D      -0.057600
     17 C11         -0.6960     0.0000     1.2150 ca         1 91D      -0.306600
     18 C12         -2.1130     0.0010     1.2640 ca         1 91D       0.583200
     19 N13         -2.8600    -0.0010     0.1050 nh         1 91D      -0.515300
     20 C14         -3.6840     1.2110     0.0090 c3         1 91D       0.135300
     21 N16         -5.0800    -0.0020    -1.5790 n          1 91D      -0.163800
     22 C18         -7.0970     1.3010    -2.1690 c3         1 91D      -0.102400
     23 C19         -8.5410     1.0210    -2.5920 c3         1 91D       0.021900
     24 O20         -6.9550    -1.0530    -2.1270 o          1 91D      -0.646100
     25 N23         -2.7010     0.0010     2.4500 nb         1 91D      -0.710000
     26 N25         -2.6680     0.0000     4.7840 nu         1 91D      -0.490900
     27 C27         -2.8970    -0.0010     7.2190 c3         1 91D      -0.115400
     28 N29         -2.7830    -0.0010     9.6910 n          1 91D      -0.166800
     29 C30         -2.0330    -0.0010    10.9490 c3         1 91D       0.091300
     30 C31         -4.2470    -0.0010     9.7100 c3         1 91D       0.091300
     31 O32         -0.9120    -0.0000     8.4970 o          1 91D      -0.636100
     32 N33         -0.6740     0.0010     3.5900 nb         1 91D      -0.698000
     33 C34          0.0170     0.0010     2.4400 ca         1 91D       0.456600
     34 C35          1.4160     0.0010     2.4210 ca         1 91D      -0.155300
     35 Cl36         2.2200    -0.0000    -1.5090 cl         1 91D      -0.014400
     36 H1          -0.5430    -0.0000    -0.9370 ha         1 91D       0.131000
     37 H2          -3.6020     1.3790    -2.1360 h1         1 91D       0.035950
     38 H3          -5.0530     2.0890    -1.4020 h1         1 91D       0.035950
     39 H4          -5.0510    -2.0930    -1.4000 h1         1 91D       0.035950
     40 H5          -3.6000    -1.3830    -2.1340 h1         1 91D       0.035950
     41 H6          -3.0530    -2.0870     0.1350 h1         1 91D       0.027450
     42 H7          -4.4420    -1.1950     0.7820 h1         1 91D       0.027450
     43 H8          -1.2950    -0.8840     6.0910 h1         1 91D       0.042700
     44 H9          -1.2950     0.8850     6.0920 h1         1 91D       0.042700
     45 H10          6.1760     1.9270     0.2130 ha         1 91D       0.120000
     46 H11          7.4160    -0.0060     1.1030 ha         1 91D       0.106000
     47 H12          6.2030    -1.9360     2.0350 ha         1 91D       0.108000
     48 H13          3.7400    -1.9420     2.0890 ha         1 91D       0.114000
     49 H14         -4.4430     1.1920     0.7810 h1         1 91D       0.027450
     50 H15         -3.0550     2.0850     0.1340 h1         1 91D       0.027450
     51 H16         -7.0950     1.8700    -1.2470 hc         1 91D       0.026700
     52 H17         -6.5980     1.8700    -2.9440 hc         1 91D       0.026700
     53 H18         -9.0560     1.9590    -2.7610 hc         1 91D       0.009033
     54 H19         -8.5430     0.4380    -3.5050 hc         1 91D       0.009033
     55 H20         -9.0450     0.4680    -1.8090 hc         1 91D       0.009033
     56 H21         -3.6690     0.0010     4.7980 hn         1 91D       0.295800
     57 H22         -3.5210     0.8840     7.1700 hc         1 91D       0.031700
     58 H23         -3.5200    -0.8850     7.1700 hc         1 91D       0.031700
     59 H24         -1.4210    -0.8930    11.0040 h1         1 91D       0.009700
     60 H25         -2.7260     0.0130    11.7820 h1         1 91D       0.009700
     61 H26         -1.3990     0.8760    10.9910 h1         1 91D       0.009700
     62 H27         -4.5950    -0.0060    10.7370 h1         1 91D       0.009700
     63 H28         -4.6160     0.8860     9.2090 h1         1 91D       0.009700
     64 H29         -4.6150    -0.8830     9.2000 h1         1 91D       0.009700
     65 H30          1.9700     0.1410     3.3410 ha         1 91D       0.132000
     66 F01          3.5750     2.1490     0.1560 f          1 91D      -0.125900
@<TRIPOS>BOND
     1     1    16 ar  
     2     1    17 ar  
     3     1    36 1   
     4     2    20 1   
     5     2    21 1   
     6     2    37 1   
     7     2    38 1   
     8     3    21 1   
     9     3    22 1   
    10     3    24 2   
    11     4     5 1   
    12     4    21 1   
    13     4    39 1   
    14     4    40 1   
    15     5    19 1   
    16     5    41 1   
    17     5    42 1   
    18     6    25 ar  
    19     6    26 1   
    20     6    32 ar  
    21     7    26 1   
    22     7    27 1   
    23     7    43 1   
    24     7    44 1   
    25     8    27 1   
    26     8    28 1   
    27     8    31 2   
    28     9    10 ar  
    29     9    14 ar  
    30     9    66 1   
    31    10    11 ar  
    32    10    45 1   
    33    11    12 ar  
    34    11    46 1   
    35    12    13 ar  
    36    12    47 1   
    37    13    14 ar  
    38    13    48 1   
    39    14    15 1   
    40    15    16 ar  
    41    15    34 ar  
    42    16    35 1   
    43    17    18 ar  
    44    17    33 ar  
    45    18    19 1   
    46    18    25 ar  
    47    19    20 1   
    48    20    49 1   
    49    20    50 1   
    50    22    23 1   
    51    22    51 1   
    52    22    52 1   
    53    23    53 1   
    54    23    54 1   
    55    23    55 1   
    56    26    56 1   
    57    27    57 1   
    58    27    58 1   
    59    28    29 1   
    60    28    30 1   
    61    29    59 1   
    62    29    60 1   
    63    29    61 1   
    64    30    62 1   
    65    30    63 1   
    66    30    64 1   
    67    32    33 ar  
    68    33    34 ar  
    69    34    65 1   
@<TRIPOS>SUBSTRUCTURE
     1 91D         1 TEMP              0 ****  ****    0 ROOT
