@<TRIPOS>MOLECULE
91E
   59    61     1     0     0
SMALL
bcc


@<TRIPOS>ATOM
      1 CBC          0.0000     0.0000     0.0000 c3         1 91E       0.062200
      2 CBB          1.5080     0.0000     0.0000 ca         1 91E      -0.098300
      3 CBD          2.1980     0.0000     1.1970 ca         1 91E      -0.087000
      4 CBE          3.5800    -0.0000     1.1990 ca         1 91E      -0.091000
      5 CBF          4.2770     0.0010     0.0050 ca         1 91E      -0.089000
      6 CAB          3.5930     0.0010    -1.1960 ca         1 91E      -0.034600
      7 Cl1          4.4670     0.0010    -2.6950 cl         1 91E       0.027600
      8 CAC          2.2030    -0.0060    -1.2010 ca         1 91E      -0.091400
      9 NAD          1.5070    -0.0050    -2.4150 ns         1 91E      -0.027100
     10 CAE          1.9200    -0.7910    -3.4290 c          1 91E       0.611700
     11 OBA          2.8600    -1.5480    -3.2690 o          1 91E      -0.618100
     12 CAF          1.2390    -0.7340    -4.7220 cc         1 91E      -0.219000
     13 SAZ         -0.1310     0.2970    -5.1300 ss         1 91E      -0.306300
     14 CAG          1.5550    -1.4670    -5.8320 cd         1 91E       0.481200
     15 NAH          0.7880    -1.2270    -6.8650 nd         1 91E      -0.659000
     16 CAI         -0.1560    -0.3430    -6.7150 cc         1 91E       0.545300
     17 NAJ         -1.0500     0.0270    -7.6980 nu         1 91E      -0.246300
     18 CAK         -1.0680    -0.6540    -8.9180 ca         1 91E      -0.008400
     19 CAY         -0.6400    -1.9710    -8.9840 ca         1 91E      -0.048000
     20 CAL         -1.5200    -0.0120   -10.0660 ca         1 91E      -0.108000
     21 CAM         -1.5400    -0.6810   -11.2750 ca         1 91E      -0.077000
     22 CAN         -1.1100    -1.9900   -11.3520 ca         1 91E      -0.116000
     23 CAO         -0.6590    -2.6450   -10.2040 ca         1 91E      -0.142600
     24 CAP         -0.2050    -4.0500   -10.2830 c          1 91E       0.610700
     25 OAX          0.1870    -4.6190    -9.2830 o          1 91E      -0.619100
     26 NAQ         -0.2250    -4.7000   -11.4640 ns         1 91E      -0.239900
     27 CAR          0.2260    -6.0920   -11.5420 c3         1 91E       0.077000
     28 CAS          0.1020    -6.5880   -12.9840 c3         1 91E      -0.109000
     29 CAV         -1.3590    -6.4990   -13.4300 c3         1 91E      -0.011600
     30 CAW          0.9690    -5.7200   -13.8990 c3         1 91E      -0.011600
     31 CAT          0.5720    -8.0410   -13.0650 c3         1 91E      -0.036200
     32 NAU          0.4540    -8.5180   -14.4500 nz         1 91E       0.062400
     33 H1          -0.3610    -0.8310    -0.5940 hc         1 91E       0.009700
     34 H2          -0.3610    -0.0990     1.0170 hc         1 91E       0.009700
     35 H3          -0.3610     0.9300    -0.4230 hc         1 91E       0.009700
     36 H4           1.6550    -0.0010     2.1340 ha         1 91E       0.110000
     37 H5           4.1190    -0.0000     2.1390 ha         1 91E       0.108000
     38 H6           5.3600     0.0000     0.0110 ha         1 91E       0.116000
     39 H7           0.7340     0.6170    -2.5480 hn         1 91E       0.174500
     40 H8           2.3670    -2.1840    -5.8540 h4         1 91E       0.022100
     41 H9          -1.6990     0.7710    -7.5300 hn         1 91E       0.294800
     42 H10         -0.2910    -2.4750    -8.0900 ha         1 91E       0.172000
     43 H11         -1.8590     1.0160   -10.0120 ha         1 91E       0.113000
     44 H12         -1.8920    -0.1750   -12.1660 ha         1 91E       0.109000
     45 H13         -1.1270    -2.5110   -12.3020 ha         1 91E       0.088000
     46 H14         -0.5580    -4.2360   -12.2860 hn         1 91E       0.190500
     47 H15          1.2600    -6.1550   -11.2260 h1         1 91E       0.038200
     48 H16         -0.3880    -6.7070   -10.8940 h1         1 91E       0.038200
     49 H17         -1.9710    -6.1720   -12.5980 hc         1 91E       0.023533
     50 H18         -1.6950    -7.4730   -13.7640 hc         1 91E       0.023533
     51 H19         -1.4460    -5.7880   -14.2430 hc         1 91E       0.023533
     52 H20          0.5350    -4.7300   -13.9750 hc         1 91E       0.023533
     53 H21          1.9670    -5.6450   -13.4860 hc         1 91E       0.023533
     54 H22          1.0180    -6.1690   -14.8830 hc         1 91E       0.023533
     55 H23         -0.0410    -8.6560   -12.4180 hx         1 91E       0.089700
     56 H24          1.6070    -8.1040   -12.7500 hx         1 91E       0.089700
     57 H25          1.3670    -8.6330   -14.8430 hn         1 91E       0.230800
     58 H26         -0.0610    -7.8510   -14.9900 hn         1 91E       0.230800
     59 HAU3        -0.0260    -9.3970   -14.4590 hn         1 91E       0.230800
@<TRIPOS>BOND
     1     1     2 1   
     2     1    33 1   
     3     1    34 1   
     4     1    35 1   
     5     2     3 ar  
     6     2     8 ar  
     7     3     4 ar  
     8     3    36 1   
     9     4     5 ar  
    10     4    37 1   
    11     5     6 ar  
    12     5    38 1   
    13     6     7 1   
    14     6     8 ar  
    15     8     9 1   
    16     9    10 1   
    17     9    39 1   
    18    10    11 2   
    19    10    12 1   
    20    12    13 1   
    21    12    14 2   
    22    13    16 1   
    23    14    15 1   
    24    14    40 1   
    25    15    16 2   
    26    16    17 1   
    27    17    18 1   
    28    17    41 1   
    29    18    19 ar  
    30    18    20 ar  
    31    19    23 ar  
    32    19    42 1   
    33    20    21 ar  
    34    20    43 1   
    35    21    22 ar  
    36    21    44 1   
    37    22    23 ar  
    38    22    45 1   
    39    23    24 1   
    40    24    25 2   
    41    24    26 1   
    42    26    27 1   
    43    26    46 1   
    44    27    28 1   
    45    27    47 1   
    46    27    48 1   
    47    28    29 1   
    48    28    30 1   
    49    28    31 1   
    50    29    49 1   
    51    29    50 1   
    52    29    51 1   
    53    30    52 1   
    54    30    53 1   
    55    30    54 1   
    56    31    32 1   
    57    31    55 1   
    58    31    56 1   
    59    32    57 1   
    60    32    58 1   
    61    32    59 1   
@<TRIPOS>SUBSTRUCTURE
     1 91E         1 TEMP              0 ****  ****    0 ROOT
