@<TRIPOS>MOLECULE
molecule
   59    61     1     0     0
SMALL
bcc


@<TRIPOS>ATOM
      1 CBC          0.0000     0.0000     0.0000 c3         1 91E      -0.045800
      2 CBB          1.5080     0.0000     0.0000 ca         1 91E      -0.096300
      3 CBD          2.1980     0.0000     1.1970 ca         1 91E      -0.112000
      4 CBE          3.5800    -0.0000     1.1990 ca         1 91E      -0.125000
      5 CBF          4.2770     0.0010     0.0050 ca         1 91E      -0.112000
      6 CAB          3.5930     0.0010    -1.1960 ca         1 91E       0.032400
      7 Cl1          4.4670     0.0010    -2.6950 cl         1 91E      -0.074400
      8 CAC          2.2030    -0.0060    -1.2010 ca         1 91E       0.057600
      9 NAD          1.5070    -0.0050    -2.4150 ns         1 91E      -0.472100
     10 CAE          1.9200    -0.7910    -3.4290 c          1 91E       0.700700
     11 OBA          2.8600    -1.5480    -3.2690 o          1 91E      -0.563100
     12 CAF          1.2390    -0.7340    -4.7220 cc         1 91E      -0.243000
     13 SAZ         -0.1310     0.2970    -5.1300 ss         1 91E      -0.208300
     14 CAG          1.5550    -1.4670    -5.8320 cc         1 91E       0.482200
     15 NAH          0.7880    -1.2270    -6.8650 nc         1 91E      -0.763000
     16 CAI         -0.1560    -0.3430    -6.7150 cd         1 91E       0.713300
     17 NAJ         -1.0500     0.0270    -7.6980 nu         1 91E      -0.742300
     18 CAK         -1.0680    -0.6540    -8.9180 ca         1 91E       0.159600
     19 CAY         -0.6400    -1.9710    -8.9840 ca         1 91E      -0.070000
     20 CAL         -1.5200    -0.0120   -10.0660 ca         1 91E      -0.140000
     21 CAM         -1.5400    -0.6810   -11.2750 ca         1 91E      -0.108000
     22 CAN         -1.1100    -1.9900   -11.3520 ca         1 91E      -0.138000
     23 CAO         -0.6590    -2.6450   -10.2040 ca         1 91E      -0.135600
     24 CAP         -0.2050    -4.0500   -10.2830 c          1 91E       0.682700
     25 OAX          0.1870    -4.6190    -9.2830 o          1 91E      -0.582100
     26 NAQ         -0.2250    -4.7000   -11.4640 ns         1 91E      -0.601900
     27 CAR          0.2260    -6.0920   -11.5420 c3         1 91E       0.135000
     28 CAS          0.1020    -6.5880   -12.9840 c3         1 91E      -0.123000
     29 CAV         -1.3590    -6.4990   -13.4300 c3         1 91E      -0.106100
     30 CAW          0.9690    -5.7200   -13.8990 c3         1 91E      -0.106100
     31 CAT          0.5720    -8.0410   -13.0650 c3         1 91E       0.106800
     32 NAU          0.4540    -8.5180   -14.4500 nz         1 91E      -0.812600
     33 H1          -0.3610    -0.8310    -0.5940 hc         1 91E       0.045033
     34 H2          -0.3610    -0.0990     1.0170 hc         1 91E       0.045033
     35 H3          -0.3610     0.9300    -0.4230 hc         1 91E       0.045033
     36 H4           1.6550    -0.0010     2.1340 ha         1 91E       0.139000
     37 H5           4.1190    -0.0000     2.1390 ha         1 91E       0.140000
     38 H6           5.3600     0.0000     0.0110 ha         1 91E       0.148000
     39 H7           0.7340     0.6170    -2.5480 hn         1 91E       0.324500
     40 H8           2.3670    -2.1840    -5.8540 h4         1 91E       0.072100
     41 H9          -1.6990     0.7710    -7.5300 hn         1 91E       0.469800
     42 H10         -0.2910    -2.4750    -8.0900 ha         1 91E       0.198000
     43 H11         -1.8590     1.0160   -10.0120 ha         1 91E       0.141000
     44 H12         -1.8920    -0.1750   -12.1660 ha         1 91E       0.140000
     45 H13         -1.1270    -2.5110   -12.3020 ha         1 91E       0.110000
     46 H14         -0.5580    -4.2360   -12.2860 hn         1 91E       0.318500
     47 H15          1.2600    -6.1550   -11.2260 h1         1 91E       0.066200
     48 H16         -0.3880    -6.7070   -10.8940 h1         1 91E       0.066200
     49 H17         -1.9710    -6.1720   -12.5980 hc         1 91E       0.055700
     50 H18         -1.6950    -7.4730   -13.7640 hc         1 91E       0.055700
     51 H19         -1.4460    -5.7880   -14.2430 hc         1 91E       0.055700
     52 H20          0.5350    -4.7300   -13.9750 hc         1 91E       0.055700
     53 H21          1.9670    -5.6450   -13.4860 hc         1 91E       0.055700
     54 H22          1.0180    -6.1690   -14.8830 hc         1 91E       0.055700
     55 H23         -0.0410    -8.6560   -12.4180 hx         1 91E       0.114700
     56 H24          1.6070    -8.1040   -12.7500 hx         1 91E       0.114700
     57 H25          1.3670    -8.6330   -14.8430 hn         1 91E       0.459133
     58 H26         -0.0610    -7.8510   -14.9900 hn         1 91E       0.459133
     59 HAU3        -0.0260    -9.3970   -14.4590 hn         1 91E       0.459133
@<TRIPOS>BOND
     1    25    24 2
     2    31    32 1
     3    31    28 1
     4    27    28 1
     5    27    26 1
     6    28    30 1
     7    28    29 1
     8    24    26 1
     9    24    23 1
    10    19    23 ar
    11    19    18 ar
    12    23    22 ar
    13    17    18 1
    14    17    16 1
    15    18    20 ar
    16    15    16 2
    17    15    14 1
    18    16    13 1
    19    22    21 ar
    20    14    12 2
    21    20    21 ar
    22    13    12 1
    23    12    10 1
    24     9    10 1
    25     9     8 1
    26    10    11 2
    27     7     6 1
    28     8     6 ar
    29     8     2 ar
    30     6     5 ar
    31     1     2 1
    32     2     3 ar
    33     5     4 ar
    34     3     4 ar
    35     1    33 1
    36     1    34 1
    37     1    35 1
    38     3    36 1
    39     4    37 1
    40     5    38 1
    41     9    39 1
    42    14    40 1
    43    17    41 1
    44    19    42 1
    45    20    43 1
    46    21    44 1
    47    22    45 1
    48    26    46 1
    49    27    47 1
    50    27    48 1
    51    29    49 1
    52    29    50 1
    53    29    51 1
    54    30    52 1
    55    30    53 1
    56    30    54 1
    57    31    55 1
    58    31    56 1
    59    32    57 1
    60    32    58 1
    61    59    32 1
@<TRIPOS>SUBSTRUCTURE
     1 91E         1 TEMP              0 ****  ****    0 ROOT
