@<TRIPOS>MOLECULE
91F
   31    33     1     0     0
SMALL
bcc


@<TRIPOS>ATOM
      1 O            0.0000     0.0000     0.0000 o          1 91F      -0.666500
      2 C14          1.2180     0.0000     0.0000 c          1 91F       0.620100
      3 N1           1.9190     0.0000     1.1580 ns         1 91F      -0.018400
      4 C7           3.2880     0.0010     1.1370 cc         1 91F       0.359500
      5 C4           4.0100     0.0000     2.4250 ca         1 91F      -0.165900
      6 C5           5.4080     0.0010     2.4420 ca         1 91F      -0.054000
      7 C6           6.0790     0.0000     3.6450 ca         1 91F      -0.106000
      8 C1           5.3670    -0.0010     4.8410 ca         1 91F       0.074900
      9 S            6.2300    -0.0010     6.3770 ss         1 91F      -0.321000
     10 C            4.8880    -0.0030     7.5980 c3         1 91F       0.107000
     11 C2           3.9740    -0.0010     4.8260 ca         1 91F      -0.106000
     12 C3           3.2980     0.0040     3.6270 ca         1 91F      -0.054000
     13 N            3.9860     0.0020     0.0290 nd         1 91F      -0.536100
     14 C8           3.3930     0.0020    -1.1810 ca         1 91F       0.155400
     15 C13          1.9810    -0.0050    -1.2560 ca         1 91F      -0.217600
     16 C9           4.1410     0.0050    -2.3610 ca         1 91F      -0.099000
     17 C10          3.4970     0.0050    -3.5770 ca         1 91F      -0.063000
     18 C11          2.1100     0.0050    -3.6470 ca         1 91F      -0.129000
     19 C12          1.3500    -0.0100    -2.4980 ca         1 91F      -0.015000
     20 H1           1.4340    -0.0010     2.0330 hn         1 91F       0.189500
     21 H5           5.9630     0.0020     1.5120 ha         1 91F       0.118000
     22 H3           2.2150     0.0040     3.6150 ha         1 91F       0.118000
     23 H6           7.1620     0.0010     3.6600 ha         1 91F       0.120500
     24 H2           3.4230    -0.0000     5.7580 ha         1 91F       0.120500
     25 HC1          4.2780    -0.8870     7.4630 h1         1 91F       0.037700
     26 HC2          4.2770     0.8820     7.4650 h1         1 91F       0.037700
     27 HC3          5.3090    -0.0040     8.5970 h1         1 91F       0.037700
     28 H9           5.2240     0.0050    -2.3190 ha         1 91F       0.119000
     29 H12          0.2680    -0.0100    -2.5600 ha         1 91F       0.124000
     30 H10          4.0790     0.0160    -4.4910 ha         1 91F       0.103000
     31 H11          1.6210     0.0050    -4.6140 ha         1 91F       0.108000
@<TRIPOS>BOND
     1     1     2 2   
     2     2     3 1   
     3     2    15 1   
     4     3     4 1   
     5     3    20 1   
     6     4     5 1   
     7     4    13 2   
     8     5     6 ar  
     9     5    12 ar  
    10     6     7 ar  
    11     6    21 1   
    12     7     8 ar  
    13     7    23 1   
    14     8     9 1   
    15     8    11 ar  
    16     9    10 1   
    17    10    25 1   
    18    10    26 1   
    19    10    27 1   
    20    11    12 ar  
    21    11    24 1   
    22    12    22 1   
    23    13    14 1   
    24    14    15 ar  
    25    14    16 ar  
    26    15    19 ar  
    27    16    17 ar  
    28    16    28 1   
    29    17    18 ar  
    30    17    30 1   
    31    18    19 ar  
    32    18    31 1   
    33    19    29 1   
@<TRIPOS>SUBSTRUCTURE
     1 91F         1 TEMP              0 ****  ****    0 ROOT
