@<TRIPOS>MOLECULE
91G
   73    77     1     0     0
SMALL
bcc


@<TRIPOS>ATOM
      1 N12          0.0000     0.0000     0.0000 nh         1 91G      -0.515300
      2 C13          1.4690     0.0000     0.0000 c3         1 91G       0.135300
      3 C17         -0.5320     1.2220     0.6190 c3         1 91G       0.135300
      4 C24         -0.4420     2.6200    -6.5990 c3         1 91G      -0.115400
      5 C28         -1.1670     3.3000   -10.2960 c3         1 91G       0.091300
      6 C02         -2.3600    -3.3450    -1.0310 ca         1 91G      -0.067600
      7 C03         -2.8430    -3.4690    -2.3440 cp         1 91G       0.010000
      8 C04         -2.5490    -2.5060    -3.2970 ca         1 91G      -0.154300
      9 C05         -1.7660    -1.4020    -2.9390 ca         1 91G       0.456600
     10 C06         -1.2850    -1.2900    -1.6110 ca         1 91G      -0.308600
     11 C07         -1.6010    -2.2750    -0.6660 ca         1 91G      -0.033000
     12 N08         -1.4520    -0.4420    -3.8230 nb         1 91G      -0.696000
     13 C09         -0.7120     0.5870    -3.4570 ca         1 91G       0.732900
     14 N10         -0.2410     0.7310    -2.2220 nb         1 91G      -0.710000
     15 C11         -0.4940    -0.1630    -1.2770 ca         1 91G       0.583200
     16 C14          1.9770     0.0000     1.4460 c3         1 91G       0.049000
     17 N15          1.3560     1.1270     2.1580 n          1 91G      -0.164800
     18 C16         -0.1070     1.2720     2.0900 c3         1 91G       0.049000
     19 C18          2.1060     2.0020     2.8560 c          1 91G       0.590100
     20 C19          1.4480     3.1490     3.5800 c3         1 91G      -0.101400
     21 O21          3.3100     1.8670     2.9030 o          1 91G      -0.645100
     22 C23         -0.9140     1.4250    -5.7690 c3         1 91G       0.177800
     23 C25         -0.9580     2.4860    -8.0090 c          1 91G       0.588100
     24 N26         -0.6650     3.4300    -8.9260 n          1 91G      -0.167800
     25 C27          0.1540     4.5850    -8.5530 c3         1 91G       0.091300
     26 O29         -1.6360     1.5300    -8.3190 o          1 91G      -0.634100
     27 C30         -3.6720    -4.6390    -2.7150 cp         1 91G      -0.019000
     28 C31         -3.2070    -5.5580    -3.6370 ca         1 91G      -0.111000
     29 C32         -3.9810    -6.6630    -3.9920 ca         1 91G       0.123100
     30 O33         -3.5020    -7.5530    -4.9010 oh         1 91G      -0.501100
     31 C34         -5.2230    -6.8650    -3.4340 ca         1 91G      -0.125000
     32 C35         -5.7250    -5.9490    -2.4940 ca         1 91G      -0.017000
     33 C36         -4.9440    -4.8270    -2.1230 ca         1 91G      -0.028000
     34 C37         -5.4480    -3.9170    -1.1830 ca         1 91G      -0.094000
     35 C38         -6.6810    -4.1210    -0.6400 ca         1 91G      -0.098000
     36 C39         -7.4510    -5.2230    -1.0040 ca         1 91G      -0.095000
     37 C40         -6.9910    -6.1310    -1.9080 ca         1 91G      -0.092000
     38 H1           1.8300     0.8860    -0.5080 h1         1 91G       0.027200
     39 H2           1.8300    -0.8860    -0.5080 h1         1 91G       0.027200
     40 H3          -0.1400     2.0880     0.1000 h1         1 91G       0.027200
     41 H4          -1.6140     1.2150     0.5560 h1         1 91G       0.027200
     42 H5           3.0450     3.3650     5.0020 hc         1 91G       0.009033
     43 H6           3.2160     4.3710     3.5570 hc         1 91G       0.009033
     44 H7           2.0440     4.8100     4.8070 hc         1 91G       0.009033
     45 H8          -0.8200     3.5360    -6.1620 hc         1 91G       0.031700
     46 H9           0.6410     2.6460    -6.6120 hc         1 91G       0.031700
     47 H10         -2.2500     3.2760   -10.2830 h1         1 91G       0.009533
     48 H11         -0.8320     4.1450   -10.8850 h1         1 91G       0.009533
     49 H12         -0.7910     2.3830   -10.7330 h1         1 91G       0.009533
     50 H13         -2.9230    -2.6050    -4.3080 ha         1 91G       0.135000
     51 H14         -1.3020    -2.1510     0.3680 ha         1 91G       0.131000
     52 H15          3.0540     0.1160     1.4520 h1         1 91G       0.035700
     53 H16          1.7030    -0.9310     1.9270 h1         1 91G       0.035700
     54 H17         -0.5780     0.4610     2.6320 h1         1 91G       0.035700
     55 H18         -0.3980     2.2230     2.5190 h1         1 91G       0.035700
     56 H19          0.9180     3.7700     2.8670 hc         1 91G       0.026200
     57 H20          0.7490     2.7620     4.3110 hc         1 91G       0.026200
     58 H21          0.1480     2.3440    -4.1440 hn         1 91G       0.295800
     59 H22         -0.5360     0.5090    -6.2070 h1         1 91G       0.043200
     60 H23         -1.9970     1.4000    -5.7560 h1         1 91G       0.043200
     61 H24          1.1240     4.2450    -8.2110 h1         1 91G       0.009533
     62 H25         -0.3360     5.1350    -7.7580 h1         1 91G       0.009533
     63 H26          0.2820     5.2310    -9.4130 h1         1 91G       0.009533
     64 H27         -2.2310    -5.4190    -4.0880 ha         1 91G       0.120000
     65 H28         -3.0190    -8.2290    -4.4550 ho         1 91G       0.402000
     66 H29         -5.8120    -7.7270    -3.7200 ha         1 91G       0.118000
     67 H30         -4.8610    -3.0550    -0.8910 ha         1 91G       0.117000
     68 H31         -7.0710    -3.4130     0.0810 ha         1 91G       0.101000
     69 H32         -8.4280    -5.3630    -0.5580 ha         1 91G       0.101000
     70 H33         -7.6000    -6.9840    -2.1820 ha         1 91G       0.107000
     71 N22         -0.4120     1.5550    -4.3990 nu         1 91G      -0.491900
     72 C20          2.5160     3.9850     4.2880 c3         1 91G       0.020900
     73 Cl01        -2.7420    -4.5660     0.1420 cl         1 91G      -0.012400
@<TRIPOS>BOND
     1     1     2 1   
     2     1     3 1   
     3     1    15 1   
     4     2    16 1   
     5     2    38 1   
     6     2    39 1   
     7     3    18 1   
     8     3    40 1   
     9     3    41 1   
    10     4    22 1   
    11     4    23 1   
    12     4    45 1   
    13     4    46 1   
    14     5    24 1   
    15     5    47 1   
    16     5    48 1   
    17     5    49 1   
    18     6     7 ar  
    19     6    11 ar  
    20     6    73 1   
    21     7     8 ar  
    22     7    27 1   
    23     8     9 ar  
    24     8    50 1   
    25     9    10 ar  
    26     9    12 ar  
    27    10    11 ar  
    28    10    15 ar  
    29    11    51 1   
    30    12    13 ar  
    31    13    14 ar  
    32    13    71 1   
    33    14    15 ar  
    34    16    17 1   
    35    16    52 1   
    36    16    53 1   
    37    17    18 1   
    38    17    19 1   
    39    18    54 1   
    40    18    55 1   
    41    19    20 1   
    42    19    21 2   
    43    20    56 1   
    44    20    57 1   
    45    20    72 1   
    46    22    59 1   
    47    22    60 1   
    48    22    71 1   
    49    23    24 1   
    50    23    26 2   
    51    24    25 1   
    52    25    61 1   
    53    25    62 1   
    54    25    63 1   
    55    27    28 ar  
    56    27    33 ar  
    57    28    29 ar  
    58    28    64 1   
    59    29    30 1   
    60    29    31 ar  
    61    30    65 1   
    62    31    32 ar  
    63    31    66 1   
    64    32    33 ar  
    65    32    37 ar  
    66    33    34 ar  
    67    34    35 ar  
    68    34    67 1   
    69    35    36 ar  
    70    35    68 1   
    71    36    37 ar  
    72    36    69 1   
    73    37    70 1   
    74    42    72 1   
    75    43    72 1   
    76    44    72 1   
    77    58    71 1   
@<TRIPOS>SUBSTRUCTURE
     1 91G         1 TEMP              0 ****  ****    0 ROOT
