@<TRIPOS>MOLECULE
molecule
   73    77     1     0     0
SMALL
bcc


@<TRIPOS>ATOM
      1 N12          0.0000     0.0000     0.0000 nh         1 91G      -0.724300
      2 C13          1.4690     0.0000     0.0000 c3         1 91G       0.150800
      3 C17         -0.5320     1.2220     0.6190 c3         1 91G       0.150800
      4 C24         -0.4420     2.6200    -6.5990 c3         1 91G      -0.178400
      5 C28         -1.1670     3.3000   -10.2960 c3         1 91G       0.100300
      6 C02         -2.3600    -3.3450    -1.0310 ca         1 91G      -0.005600
      7 C03         -2.8430    -3.4690    -2.3440 cp         1 91G       0.006000
      8 C04         -2.5490    -2.5060    -3.2970 ca         1 91G      -0.175300
      9 C05         -1.7660    -1.4020    -2.9390 ca         1 91G       0.495600
     10 C06         -1.2850    -1.2900    -1.6110 ca         1 91G      -0.311600
     11 C07         -1.6010    -2.2750    -0.6660 ca         1 91G      -0.054000
     12 N08         -1.4520    -0.4420    -3.8230 nb         1 91G      -0.795000
     13 C09         -0.7120     0.5870    -3.4570 ca         1 91G       0.958900
     14 N10         -0.2410     0.7310    -2.2220 nb         1 91G      -0.832000
     15 C11         -0.4940    -0.1630    -1.2770 ca         1 91G       0.704200
     16 C14          1.9770     0.0000     1.4460 c3         1 91G       0.106000
     17 N15          1.3560     1.1270     2.1580 n          1 91G      -0.498800
     18 C16         -0.1070     1.2720     2.0900 c3         1 91G       0.106000
     19 C18          2.1060     2.0020     2.8560 c          1 91G       0.663100
     20 C19          1.4480     3.1490     3.5800 c3         1 91G      -0.159400
     21 O21          3.3100     1.8670     2.9030 o          1 91G      -0.608100
     22 C23         -0.9140     1.4250    -5.7690 c3         1 91G       0.259800
     23 C25         -0.9580     2.4860    -8.0090 c          1 91G       0.665100
     24 N26         -0.6650     3.4300    -8.9260 n          1 91G      -0.498800
     25 C27          0.1540     4.5850    -8.5530 c3         1 91G       0.100300
     26 O29         -1.6360     1.5300    -8.3190 o          1 91G      -0.597100
     27 C30         -3.6720    -4.6390    -2.7150 cp         1 91G      -0.027000
     28 C31         -3.2070    -5.5580    -3.6370 ca         1 91G      -0.126000
     29 C32         -3.9810    -6.6630    -3.9920 ca         1 91G       0.103100
     30 O33         -3.5020    -7.5530    -4.9010 oh         1 91G      -0.522100
     31 C34         -5.2230    -6.8650    -3.4340 ca         1 91G      -0.136000
     32 C35         -5.7250    -5.9490    -2.4940 ca         1 91G      -0.024000
     33 C36         -4.9440    -4.8270    -2.1230 ca         1 91G      -0.022000
     34 C37         -5.4480    -3.9170    -1.1830 ca         1 91G      -0.107000
     35 C38         -6.6810    -4.1210    -0.6400 ca         1 91G      -0.127000
     36 C39         -7.4510    -5.2230    -1.0040 ca         1 91G      -0.121000
     37 C40         -6.9910    -6.1310    -1.9080 ca         1 91G      -0.119000
     38 H1           1.8300     0.8860    -0.5080 h1         1 91G       0.057450
     39 H2           1.8300    -0.8860    -0.5080 h1         1 91G       0.057450
     40 H3          -0.1400     2.0880     0.1000 h1         1 91G       0.057450
     41 H4          -1.6140     1.2150     0.5560 h1         1 91G       0.057450
     42 H5           3.0450     3.3650     5.0020 hc         1 91G       0.044367
     43 H6           3.2160     4.3710     3.5570 hc         1 91G       0.044367
     44 H7           2.0440     4.8100     4.8070 hc         1 91G       0.044367
     45 H8          -0.8200     3.5360    -6.1620 hc         1 91G       0.064200
     46 H9           0.6410     2.6460    -6.6120 hc         1 91G       0.064200
     47 H10         -2.2500     3.2760   -10.2830 h1         1 91G       0.041367
     48 H11         -0.8320     4.1450   -10.8850 h1         1 91G       0.041367
     49 H12         -0.7910     2.3830   -10.7330 h1         1 91G       0.041367
     50 H13         -2.9230    -2.6050    -4.3080 ha         1 91G       0.168000
     51 H14         -1.3020    -2.1510     0.3680 ha         1 91G       0.163000
     52 H15          3.0540     0.1160     1.4520 h1         1 91G       0.064200
     53 H16          1.7030    -0.9310     1.9270 h1         1 91G       0.064200
     54 H17         -0.5780     0.4610     2.6320 h1         1 91G       0.064200
     55 H18         -0.3980     2.2230     2.5190 h1         1 91G       0.064200
     56 H19          0.9180     3.7700     2.8670 hc         1 91G       0.057700
     57 H20          0.7490     2.7620     4.3110 hc         1 91G       0.057700
     58 H21          0.1480     2.3440    -4.1440 hn         1 91G       0.450800
     59 H22         -0.5360     0.5090    -6.2070 h1         1 91G       0.071700
     60 H23         -1.9970     1.4000    -5.7560 h1         1 91G       0.071700
     61 H24          1.1240     4.2450    -8.2110 h1         1 91G       0.041367
     62 H25         -0.3360     5.1350    -7.7580 h1         1 91G       0.041367
     63 H26          0.2820     5.2310    -9.4130 h1         1 91G       0.041367
     64 H27         -2.2310    -5.4190    -4.0880 ha         1 91G       0.147000
     65 H28         -3.0190    -8.2290    -4.4550 ho         1 91G       0.419000
     66 H29         -5.8120    -7.7270    -3.7200 ha         1 91G       0.144000
     67 H30         -4.8610    -3.0550    -0.8910 ha         1 91G       0.140000
     68 H31         -7.0710    -3.4130     0.0810 ha         1 91G       0.129000
     69 H32         -8.4280    -5.3630    -0.5580 ha         1 91G       0.129000
     70 H33         -7.6000    -6.9840    -2.1820 ha         1 91G       0.134000
     71 N22         -0.4120     1.5550    -4.3990 nu         1 91G      -0.902900
     72 C20          2.5160     3.9850     4.2880 c3         1 91G      -0.077100
     73 Cl01        -2.7420    -4.5660     0.1420 cl         1 91G      -0.098400
@<TRIPOS>BOND
     1    21    19 2   
     2    35    36 ar  
     3    35    34 ar  
     4    36    37 ar  
     5    19    17 1   
     6    19    20 1   
     7    73     6 1   
     8    72    20 1   
     9    18    17 1   
    10    18     3 1   
    11    34    33 ar  
    12    37    32 ar  
    13    17    16 1   
    14     3     1 1   
    15    33    32 ar  
    16    33    27 ar  
    17    32    31 ar  
    18     6    11 ar  
    19     6     7 ar  
    20    11    10 ar  
    21     1     2 1   
    22     1    15 1   
    23    16     2 1   
    24     7    27 1   
    25     7     8 ar  
    26    27    28 ar  
    27    31    29 ar  
    28    10    15 ar  
    29    10     9 ar  
    30    15    14 ar  
    31    28    29 ar  
    32     8     9 ar  
    33    29    30 1   
    34     9    12 ar  
    35    14    13 ar  
    36     5    24 1   
    37    25    24 1   
    38    12    13 ar  
    39    13    71 1   
    40    24    23 1   
    41    71    22 1   
    42    23    26 2   
    43    23     4 1   
    44    22     4 1   
    45     2    38 1   
    46     2    39 1   
    47     3    40 1   
    48     3    41 1   
    49    72    42 1   
    50    72    43 1   
    51    72    44 1   
    52     4    45 1   
    53     4    46 1   
    54     5    47 1   
    55     5    48 1   
    56     5    49 1   
    57     8    50 1   
    58    11    51 1   
    59    16    52 1   
    60    16    53 1   
    61    18    54 1   
    62    18    55 1   
    63    20    56 1   
    64    20    57 1   
    65    71    58 1   
    66    22    59 1   
    67    22    60 1   
    68    25    61 1   
    69    25    62 1   
    70    25    63 1   
    71    28    64 1   
    72    30    65 1   
    73    31    66 1   
    74    34    67 1   
    75    35    68 1   
    76    36    69 1   
    77    37    70 1   
@<TRIPOS>SUBSTRUCTURE
     1 91G         1 TEMP              0 ****  ****    0 ROOT
