@<TRIPOS>MOLECULE
91H
   59    62     1     0     0
SMALL
bcc


@<TRIPOS>ATOM
      1 CAS          0.0000     0.0000     0.0000 c3         1 91H      -0.045400
      2 CAT          1.5310     0.0000     0.0000 c3         1 91H      -0.002900
      3 CAU          2.0410     0.0000     1.4430 c3         1 91H      -0.156700
      4 CAV          3.5480    -0.0000     1.4420 c          1 91H       0.984600
      5 OAX          4.2190     1.0050     0.8610 o          1 91H      -0.898800
      6 OAW          4.1510    -0.9070     1.9660 o          1 91H      -0.898800
      7 CAY          1.5300    -1.2490     2.1640 c3         1 91H      -0.002900
      8 CAZ          0.0000    -1.2480     2.1640 c3         1 91H      -0.045400
      9 CAR         -0.5100    -1.2480     0.7220 c3         1 91H       0.013700
     10 NAQ         -1.9750    -1.2480     0.7220 ns         1 91H      -0.180900
     11 CAP         -2.6490    -1.7410    -0.3360 c          1 91H       0.581700
     12 OBA         -2.0410    -2.1860    -1.2900 o          1 91H      -0.644100
     13 CAO         -4.1280    -1.7410    -0.3360 ca         1 91H      -0.115600
     14 CBB         -4.8270    -2.2550    -1.4280 ca         1 91H      -0.051000
     15 CAN         -4.8280    -1.2300     0.7580 ca         1 91H      -0.099000
     16 CAM         -6.2080    -1.2300     0.7560 ca         1 91H      -0.092000
     17 CAL         -6.9020    -1.7360    -0.3270 ca         1 91H      -0.125000
     18 CAK         -6.2140    -2.2510    -1.4200 ca         1 91H      -0.040400
     19 NAJ         -6.9210    -2.7680    -2.5110 nu         1 91H      -0.237300
     20 CAI         -6.3450    -3.7330    -3.3110 cc         1 91H       0.565300
     21 SBC         -7.0260    -4.3280    -4.7610 ss         1 91H      -0.349300
     22 NAH         -5.2060    -4.3150    -3.0690 nd         1 91H      -0.650000
     23 CAG         -4.7970    -5.2120    -3.9290 cd         1 91H       0.510200
     24 CAF         -5.6500    -5.4070    -4.9790 cc         1 91H      -0.257000
     25 CAE         -5.4540    -6.3410    -6.0870 c          1 91H       0.636700
     26 OBD         -4.4570    -7.0390    -6.1260 o          1 91H      -0.627100
     27 NAD         -6.3780    -6.4300    -7.0640 ns         1 91H      -0.052100
     28 CAC         -6.2490    -7.4030    -8.0610 ca         1 91H      -0.082400
     29 CAB         -5.0610    -7.5210    -8.7710 ca         1 91H      -0.026600
     30 ClA         -3.7310    -6.4610    -8.4220 cl         1 91H       0.027600
     31 CBI         -4.9380    -8.4840    -9.7550 ca         1 91H      -0.096000
     32 CBH         -5.9960    -9.3280   -10.0330 ca         1 91H      -0.095000
     33 CBG         -7.1810    -9.2130    -9.3280 ca         1 91H      -0.099000
     34 CBE         -7.3080    -8.2580    -8.3400 ca         1 91H      -0.094300
     35 CBF         -8.5970    -8.1390    -7.5680 c3         1 91H       0.062200
     36 H1          -0.3600     0.8840     0.5120 hc         1 91H       0.004950
     37 H2          -0.3600    -0.0030    -1.0220 hc         1 91H       0.004950
     38 H3           1.8910    -0.8860    -0.5090 hc         1 91H       0.025450
     39 H4           1.8910     0.8860    -0.5090 hc         1 91H       0.025450
     40 H5           1.6750     0.8830     1.9520 hc         1 91H       0.017700
     41 H7           1.8890    -2.1330     1.6510 hc         1 91H       0.025450
     42 H8           1.8890    -1.2460     3.1860 hc         1 91H       0.025450
     43 H9          -0.3600    -2.1330     2.6730 hc         1 91H       0.004950
     44 H10         -0.3590    -0.3610     2.6720 hc         1 91H       0.004950
     45 H11         -0.1450    -2.1320     0.2130 h1         1 91H       0.061700
     46 H12         -2.4750    -0.9100     1.5200 hn         1 91H       0.168500
     47 H13         -4.2900    -2.6570    -2.2780 ha         1 91H       0.170000
     48 H14         -4.2880    -0.8320     1.6090 ha         1 91H       0.109000
     49 H15         -6.7500    -0.8310     1.6050 ha         1 91H       0.101000
     50 H16         -7.9850    -1.7340    -0.3240 ha         1 91H       0.099000
     51 H17         -7.8320    -2.4150    -2.7290 hn         1 91H       0.284800
     52 H18         -3.8650    -5.7530    -3.8180 h4         1 91H       0.023100
     53 H19         -7.1300    -5.7710    -7.1030 hn         1 91H       0.176500
     54 H20         -4.0140    -8.5720   -10.3140 ha         1 91H       0.114000
     55 H21         -5.8980   -10.0820   -10.8050 ha         1 91H       0.102000
     56 H22         -8.0100    -9.8730    -9.5530 ha         1 91H       0.105000
     57 H23         -9.2520    -8.9610    -7.8290 hc         1 91H       0.009033
     58 H24         -9.0790    -7.2000    -7.8140 hc         1 91H       0.009033
     59 H25         -8.3860    -8.1690    -6.5060 hc         1 91H       0.009033
@<TRIPOS>BOND
     1     1     2 1   
     2     1     9 1   
     3     1    36 1   
     4     1    37 1   
     5     2     3 1   
     6     2    38 1   
     7     2    39 1   
     8     3     4 1   
     9     3     7 1   
    10     3    40 1   
    11     4     5 1   
    12     4     6 1   
    13     7     8 1   
    14     7    41 1   
    15     7    42 1   
    16     8     9 1   
    17     8    43 1   
    18     8    44 1   
    19     9    10 1   
    20     9    45 1   
    21    10    11 1   
    22    10    46 1   
    23    11    12 2   
    24    11    13 1   
    25    13    14 ar  
    26    13    15 ar  
    27    14    18 ar  
    28    14    47 1   
    29    15    16 ar  
    30    15    48 1   
    31    16    17 ar  
    32    16    49 1   
    33    17    18 ar  
    34    17    50 1   
    35    18    19 1   
    36    19    20 1   
    37    19    51 1   
    38    20    21 1   
    39    20    22 2   
    40    21    24 1   
    41    22    23 1   
    42    23    24 2   
    43    23    52 1   
    44    24    25 1   
    45    25    26 2   
    46    25    27 1   
    47    27    28 1   
    48    27    53 1   
    49    28    29 ar  
    50    28    34 ar  
    51    29    30 1   
    52    29    31 ar  
    53    31    32 ar  
    54    31    54 1   
    55    32    33 ar  
    56    32    55 1   
    57    33    34 ar  
    58    33    56 1   
    59    34    35 1   
    60    35    57 1   
    61    35    58 1   
    62    35    59 1   
@<TRIPOS>SUBSTRUCTURE
     1 91H         1 TEMP              0 ****  ****    0 ROOT
