@<TRIPOS>MOLECULE
molecule
   59    62     1     0     0
SMALL
bcc


@<TRIPOS>ATOM
      1 CAS          0.0000     0.0000     0.0000 c3         1 91H      -0.097900
      2 CAT          1.5310     0.0000     0.0000 c3         1 91H      -0.054900
      3 CAU          2.0410     0.0000     1.4430 c3         1 91H      -0.173700
      4 CAV          3.5480    -0.0000     1.4420 c          1 91H       0.895600
      5 OAX          4.2190     1.0050     0.8610 o          1 91H      -0.850800
      6 OAW          4.1510    -0.9070     1.9660 o          1 91H      -0.850800
      7 CAY          1.5300    -1.2490     2.1640 c3         1 91H      -0.054900
      8 CAZ          0.0000    -1.2480     2.1640 c3         1 91H      -0.097900
      9 CAR         -0.5100    -1.2480     0.7220 c3         1 91H       0.113700
     10 NAQ         -1.9750    -1.2480     0.7220 ns         1 91H      -0.571900
     11 CAP         -2.6490    -1.7410    -0.3360 c          1 91H       0.663700
     12 OBA         -2.0410    -2.1860    -1.2900 o          1 91H      -0.603100
     13 CAO         -4.1280    -1.7410    -0.3360 ca         1 91H      -0.113600
     14 CBB         -4.8270    -2.2550    -1.4280 ca         1 91H      -0.076000
     15 CAN         -4.8280    -1.2300     0.7580 ca         1 91H      -0.124000
     16 CAM         -6.2080    -1.2300     0.7560 ca         1 91H      -0.121000
     17 CAL         -6.9020    -1.7360    -0.3270 ca         1 91H      -0.156000
     18 CAK         -6.2140    -2.2510    -1.4200 ca         1 91H       0.131600
     19 NAJ         -6.9210    -2.7680    -2.5110 nu         1 91H      -0.739300
     20 CAI         -6.3450    -3.7330    -3.3110 cc         1 91H       0.740300
     21 SBC         -7.0260    -4.3280    -4.7610 ss         1 91H      -0.262300
     22 NAH         -5.2060    -4.3150    -3.0690 nd         1 91H      -0.750000
     23 CAG         -4.7970    -5.2120    -3.9290 cd         1 91H       0.505200
     24 CAF         -5.6500    -5.4070    -4.9790 cc         1 91H      -0.268000
     25 CAE         -5.4540    -6.3410    -6.0870 c          1 91H       0.715700
     26 OBD         -4.4570    -7.0390    -6.1260 o          1 91H      -0.573100
     27 NAD         -6.3780    -6.4300    -7.0640 ns         1 91H      -0.485100
     28 CAC         -6.2490    -7.4030    -8.0610 ca         1 91H       0.061600
     29 CAB         -5.0610    -7.5210    -8.7710 ca         1 91H       0.040400
     30 ClA         -3.7310    -6.4610    -8.4220 cl         1 91H      -0.070400
     31 CBI         -4.9380    -8.4840    -9.7550 ca         1 91H      -0.118000
     32 CBH         -5.9960    -9.3280   -10.0330 ca         1 91H      -0.128000
     33 CBG         -7.1810    -9.2130    -9.3280 ca         1 91H      -0.123000
     34 CBE         -7.3080    -8.2580    -8.3400 ca         1 91H      -0.091300
     35 CBF         -8.5970    -8.1390    -7.5680 c3         1 91H      -0.044800
     36 H1          -0.3600     0.8840     0.5120 hc         1 91H       0.029700
     37 H2          -0.3600    -0.0030    -1.0220 hc         1 91H       0.029700
     38 H3           1.8910    -0.8860    -0.5090 hc         1 91H       0.051950
     39 H4           1.8910     0.8860    -0.5090 hc         1 91H       0.051950
     40 H5           1.6750     0.8830     1.9520 hc         1 91H       0.036700
     41 H7           1.8890    -2.1330     1.6510 hc         1 91H       0.051950
     42 H8           1.8890    -1.2460     3.1860 hc         1 91H       0.051950
     43 H9          -0.3600    -2.1330     2.6730 hc         1 91H       0.029700
     44 H10         -0.3590    -0.3610     2.6720 hc         1 91H       0.029700
     45 H11         -0.1450    -2.1320     0.2130 h1         1 91H       0.080700
     46 H12         -2.4750    -0.9100     1.5200 hn         1 91H       0.303500
     47 H13         -4.2900    -2.6570    -2.2780 ha         1 91H       0.194000
     48 H14         -4.2880    -0.8320     1.6090 ha         1 91H       0.133000
     49 H15         -6.7500    -0.8310     1.6050 ha         1 91H       0.130000
     50 H16         -7.9850    -1.7340    -0.3240 ha         1 91H       0.123000
     51 H17         -7.8320    -2.4150    -2.7290 hn         1 91H       0.459800
     52 H18         -3.8650    -5.7530    -3.8180 h4         1 91H       0.076100
     53 H19         -7.1300    -5.7710    -7.1030 hn         1 91H       0.324500
     54 H20         -4.0140    -8.5720   -10.3140 ha         1 91H       0.145000
     55 H21         -5.8980   -10.0820   -10.8050 ha         1 91H       0.133000
     56 H22         -8.0100    -9.8730    -9.5530 ha         1 91H       0.132000
     57 H23         -9.2520    -8.9610    -7.8290 hc         1 91H       0.044367
     58 H24         -9.0790    -7.2000    -7.8140 hc         1 91H       0.044367
     59 H25         -8.3860    -8.1690    -6.5060 hc         1 91H       0.044367
@<TRIPOS>BOND
     1     6     4 1
     2     5     4 1
     3     4     3 1
     4     3     7 1
     5     3     2 1
     6     7     8 1
     7     2     1 1
     8     8     9 1
     9     9     1 1
    10     9    10 1
    11    12    11 2
    12    10    11 1
    13    11    13 1
    14    14    13 ar
    15    14    18 ar
    16    13    15 ar
    17    19    18 1
    18    19    20 1
    19    22    20 2
    20    22    23 1
    21    18    17 ar
    22    20    21 1
    23    15    16 ar
    24    23    24 2
    25    17    16 ar
    26    21    24 1
    27    24    25 1
    28    25    27 1
    29    25    26 2
    30    30    29 1
    31    27    28 1
    32    28    29 ar
    33    28    34 ar
    34    29    31 ar
    35    35    34 1
    36    34    33 ar
    37    31    32 ar
    38    33    32 ar
    39     1    36 1
    40     1    37 1
    41     2    38 1
    42     2    39 1
    43     3    40 1
    44     7    41 1
    45     7    42 1
    46     8    43 1
    47     8    44 1
    48     9    45 1
    49    10    46 1
    50    14    47 1
    51    15    48 1
    52    16    49 1
    53    17    50 1
    54    19    51 1
    55    23    52 1
    56    27    53 1
    57    31    54 1
    58    32    55 1
    59    33    56 1
    60    35    57 1
    61    35    58 1
    62    35    59 1
@<TRIPOS>SUBSTRUCTURE
     1 91H         1 TEMP              0 ****  ****    0 ROOT
