@<TRIPOS>MOLECULE
molecule
   47    50     1     0     0
SMALL
bcc


@<TRIPOS>ATOM
      1 C4           0.0000     0.0000     0.0000 c3         1 91J      -0.072900
      2 C5           1.5310     0.0000     0.0000 c3         1 91J      -0.095700
      3 C6           2.0420     1.2490    -0.7200 c3         1 91J       0.253800
      4 C8           4.1890     2.2080    -1.4380 cc         1 91J       0.730800
      5 C10          4.1490     4.2530    -2.5350 cd         1 91J       0.313300
      6 C13          5.3780     7.5860    -4.4480 c3         1 91J       0.007900
      7 C15          7.6980     6.7070    -4.6780 c3         1 91J      -0.084400
      8 C17          6.0500     5.4200    -3.3410 cc         1 91J      -0.022300
      9 C24          1.4700    -1.2200     2.1780 c3         1 91J       0.164300
     10 N2           0.0020    -1.1740     2.1510 n3         1 91J      -0.730600
     11 C3          -0.5050    -1.2210     0.7730 c3         1 91J       0.164300
     12 N7           3.5020     1.1900    -0.8250 nu         1 91J      -0.873200
     13 N9           3.5220     3.2260    -1.9230 nd         1 91J      -0.708100
     14 S11          3.5070     5.7160    -3.2640 ss         1 91J      -0.102800
     15 C12          5.1050     6.2820    -3.7180 cd         1 91J      -0.069400
     16 C14          6.8610     7.9320    -4.3020 c3         1 91J      -0.078400
     17 C16          7.5350     5.6390    -3.5960 c3         1 91J      -0.013100
     18 C18          5.5320     4.2410    -2.6570 cc         1 91J      -0.294600
     19 C19          6.2440     3.1290    -2.1120 c          1 91J       0.739100
     20 O20          7.4590     3.0750    -2.1840 o          1 91J      -0.641500
     21 N21          5.5480     2.1390    -1.5210 ns         1 91J      -0.482400
     22 C23          2.0340     0.0000     1.4470 c3         1 91J      -0.072900
     23 H1          -0.3600    -0.0450    -1.0210 hc         1 91J       0.052450
     24 H2          -0.3610     0.9030     0.4770 hc         1 91J       0.052450
     25 H3           1.8910    -0.8880    -0.5060 hc         1 91J       0.051700
     26 H4           1.7550     2.1310    -0.1610 h1         1 91J       0.062200
     27 H5           1.6110     1.2950    -1.7130 h1         1 91J       0.062200
     28 H6           4.7770     8.3760    -4.0140 hc         1 91J       0.050200
     29 H7           5.1340     7.4720    -5.4970 hc         1 91J       0.050200
     30 H8           7.3570     6.3140    -5.6280 hc         1 91J       0.044200
     31 H9           8.7410     6.9910    -4.7510 hc         1 91J       0.044200
     32 H10          1.8110    -1.2120     3.2060 h1         1 91J       0.035450
     33 H11          1.8100    -2.1230     1.6860 h1         1 91J       0.035450
     34 H12         -1.6550    -2.1750     2.9540 h1         1 91J       0.033033
     35 H13         -0.2130    -2.1750     3.9790 h1         1 91J       0.033033
     36 H14         -0.2800    -3.2120     2.5480 h1         1 91J       0.033033
     37 H16         -0.1520    -2.1240     0.2900 h1         1 91J       0.035450
     38 H17         -1.5880    -1.2140     0.7890 h1         1 91J       0.035450
     39 H18          3.9970     0.3950    -0.4720 hn         1 91J       0.445800
     40 H19          7.0680     8.2110    -3.2760 hc         1 91J       0.045200
     41 H20          7.1070     8.7550    -4.9630 hc         1 91J       0.045200
     42 H21          7.9850     4.7120    -3.9310 hc         1 91J       0.066700
     43 H22          8.0140     5.9720    -2.6830 hc         1 91J       0.066700
     44 H23          6.0310     1.3480    -1.1410 hn         1 91J       0.330500
     45 H24          1.7020     0.9030     1.9440 hc         1 91J       0.052450
     46 H25          3.1160    -0.0450     1.4530 hc         1 91J       0.052450
     47 C1          -0.5740    -2.2550     2.9610 c3         1 91J       0.153100
@<TRIPOS>BOND
     1     7    17 1   
     2     7    16 1   
     3    17     8 1   
     4    16     6 1   
     5    20    19 2   
     6     8    18 1   
     7     8    15 2   
     8     6    15 1   
     9    19    18 1   
    10    19    21 1   
    11    18     5 2   
    12    15    14 1   
    13    21     4 1   
    14     5    14 1   
    15     5    13 1   
    16     4    13 2   
    17     4    12 1   
    18    12     3 1   
    19    22     9 1   
    20    22     2 1   
    21     3     2 1   
    22     9    10 1   
    23     2     1 1   
    24    10    11 1   
    25    10    47 1   
    26     1    11 1   
    27     1    23 1   
    28     1    24 1   
    29     2    25 1   
    30     3    26 1   
    31     3    27 1   
    32     6    28 1   
    33     6    29 1   
    34     7    30 1   
    35     7    31 1   
    36     9    32 1   
    37     9    33 1   
    38    47    34 1   
    39    47    35 1   
    40    47    36 1   
    41    11    37 1   
    42    11    38 1   
    43    12    39 1   
    44    16    40 1   
    45    16    41 1   
    46    17    42 1   
    47    17    43 1   
    48    21    44 1   
    49    22    45 1   
    50    22    46 1   
@<TRIPOS>SUBSTRUCTURE
     1 91J         1 TEMP              0 ****  ****    0 ROOT
