@<TRIPOS>MOLECULE
91K
   56    59     1     0     0
SMALL
bcc


@<TRIPOS>ATOM
      1 OAW          0.0000     0.0000     0.0000 o          1 91K      -0.897300
      2 CAV          1.2080     0.0000     0.0000 c          1 91K       0.977600
      3 OAX          1.8780     0.0000     1.1630 o          1 91K      -0.897300
      4 CAU          1.9620    -0.0050    -1.3050 c3         1 91K      -0.128400
      5 CAT          0.9690    -0.0100    -2.4670 c3         1 91K      -0.029700
      6 CAY          0.2830    -1.3920    -2.6070 c3         1 91K       0.049000
      7 CAS          1.7050     0.1110    -3.8280 c3         1 91K      -0.049400
      8 CAR          0.7310    -0.5740    -4.8100 c3         1 91K       0.023000
      9 NAQ         -0.1270    -1.4690    -4.0200 n          1 91K      -0.140800
     10 CAP         -1.1230    -2.2350    -4.5090 c          1 91K       0.611700
     11 OAZ         -1.7080    -3.0100    -3.7780 o          1 91K      -0.650100
     12 CAO         -1.5050    -2.1310    -5.9340 ca         1 91K      -0.109600
     13 CBA         -0.7370    -1.3660    -6.8100 ca         1 91K      -0.185000
     14 CAN         -2.6320    -2.8050    -6.4070 ca         1 91K      -0.050000
     15 CAM         -2.9860    -2.7090    -7.7380 ca         1 91K      -0.099000
     16 CAL         -2.2280    -1.9450    -8.6060 ca         1 91K      -0.106000
     17 CAK         -1.1010    -1.2740    -8.1450 ca         1 91K      -0.043400
     18 NAJ         -0.3340    -0.5080    -9.0280 nu         1 91K      -0.218300
     19 CAI         -0.3350    -0.8000   -10.3760 cc         1 91K       0.573300
     20 SBB          0.4460     0.1320   -11.5760 ss         1 91K      -0.341300
     21 NAH         -0.9260    -1.8300   -10.9110 nd         1 91K      -0.676000
     22 CAG         -0.8330    -1.9670   -12.2090 cd         1 91K       0.504200
     23 CAF         -0.1070    -0.9840   -12.8220 cc         1 91K      -0.267000
     24 CAE          0.1630    -0.8790   -14.2540 c          1 91K       0.636700
     25 OBC         -0.2750    -1.7180   -15.0200 o          1 91K      -0.636100
     26 NAD          0.8960     0.1480   -14.7290 ns         1 91K      -0.047100
     27 CAC          1.0580     0.3140   -16.1080 ca         1 91K      -0.081400
     28 CAB          1.4530    -0.7600   -16.8980 ca         1 91K      -0.027600
     29 Cl1          1.7450    -2.3100   -16.1730 cl         1 91K       0.025600
     30 CBH          1.6110    -0.5920   -18.2600 ca         1 91K      -0.097000
     31 CBG          1.3790     0.6430   -18.8380 ca         1 91K      -0.096000
     32 CBF          0.9860     1.7130   -18.0550 ca         1 91K      -0.096000
     33 CBD          0.8190     1.5500   -16.6930 ca         1 91K      -0.095300
     34 CBE          0.3860     2.7160   -15.8420 c3         1 91K       0.061200
     35 H2           2.5850    -0.8900    -1.3580 hc         1 91K       0.010700
     36 H3           2.5850     0.8790    -1.3650 hc         1 91K       0.010700
     37 H4           0.2310     0.7760    -2.3590 hc         1 91K       0.052700
     38 H5          -0.5840    -1.4480    -1.9610 h1         1 91K       0.048200
     39 H6           0.9850    -2.1840    -2.3760 h1         1 91K       0.048200
     40 H7           2.6500    -0.4170    -3.7990 hc         1 91K       0.017700
     41 H8           1.8460     1.1510    -4.0950 hc         1 91K       0.017700
     42 H9           1.2880    -1.1480    -5.5400 h1         1 91K       0.011700
     43 H10          0.1240     0.1740    -5.3070 h1         1 91K       0.011700
     44 H11          0.1410    -0.8440    -6.4490 ha         1 91K       0.169000
     45 H12         -3.2290    -3.4050    -5.7310 ha         1 91K       0.129000
     46 H13         -3.8620    -3.2310    -8.1030 ha         1 91K       0.103000
     47 H14         -2.5100    -1.8730    -9.6490 ha         1 91K       0.142000
     48 H15          0.1950     0.2690    -8.6850 hn         1 91K       0.286800
     49 H16         -1.2900    -2.7870   -12.7490 h4         1 91K       0.014100
     50 H17          1.3590     0.7670   -14.0930 hn         1 91K       0.177500
     51 H18          1.9190    -1.4290   -18.8760 ha         1 91K       0.113000
     52 H19          1.5060     0.7730   -19.9060 ha         1 91K       0.102000
     53 H20          0.8030     2.6780   -18.5110 ha         1 91K       0.106000
     54 H21         -0.4750     2.4300   -15.2490 hc         1 91K       0.010033
     55 H22          1.1970     3.0050   -15.1840 hc         1 91K       0.010033
     56 H23          0.1240     3.5510   -16.4800 hc         1 91K       0.010033
@<TRIPOS>BOND
     1     1     2 1   
     2     2     3 1   
     3     2     4 1   
     4     4     5 1   
     5     4    35 1   
     6     4    36 1   
     7     5     6 1   
     8     5     7 1   
     9     5    37 1   
    10     6     9 1   
    11     6    38 1   
    12     6    39 1   
    13     7     8 1   
    14     7    40 1   
    15     7    41 1   
    16     8     9 1   
    17     8    42 1   
    18     8    43 1   
    19     9    10 1   
    20    10    11 2   
    21    10    12 1   
    22    12    13 ar  
    23    12    14 ar  
    24    13    17 ar  
    25    13    44 1   
    26    14    15 ar  
    27    14    45 1   
    28    15    16 ar  
    29    15    46 1   
    30    16    17 ar  
    31    16    47 1   
    32    17    18 1   
    33    18    19 1   
    34    18    48 1   
    35    19    20 1   
    36    19    21 2   
    37    20    23 1   
    38    21    22 1   
    39    22    23 2   
    40    22    49 1   
    41    23    24 1   
    42    24    25 2   
    43    24    26 1   
    44    26    27 1   
    45    26    50 1   
    46    27    28 ar  
    47    27    33 ar  
    48    28    29 1   
    49    28    30 ar  
    50    30    31 ar  
    51    30    51 1   
    52    31    32 ar  
    53    31    52 1   
    54    32    33 ar  
    55    32    53 1   
    56    33    34 1   
    57    34    54 1   
    58    34    55 1   
    59    34    56 1   
@<TRIPOS>SUBSTRUCTURE
     1 91K         1 TEMP              0 ****  ****    0 ROOT
