@<TRIPOS>MOLECULE
molecule
   56    59     1     0     0
SMALL
bcc


@<TRIPOS>ATOM
      1 OAW          0.0000     0.0000     0.0000 o          1 91K      -0.849300
      2 CAV          1.2080     0.0000     0.0000 c          1 91K       0.888600
      3 OAX          1.8780     0.0000     1.1630 o          1 91K      -0.849300
      4 CAU          1.9620    -0.0050    -1.3050 c3         1 91K      -0.179400
      5 CAT          0.9690    -0.0100    -2.4670 c3         1 91K      -0.055700
      6 CAY          0.2830    -1.3920    -2.6070 c3         1 91K       0.111000
      7 CAS          1.7050     0.1110    -3.8280 c3         1 91K      -0.109400
      8 CAR          0.7310    -0.5740    -4.8100 c3         1 91K       0.083000
      9 NAQ         -0.1270    -1.4690    -4.0200 n          1 91K      -0.482800
     10 CAP         -1.1230    -2.2350    -4.5090 c          1 91K       0.683700
     11 OAZ         -1.7080    -3.0100    -3.7780 o          1 91K      -0.608100
     12 CAO         -1.5050    -2.1310    -5.9340 ca         1 91K      -0.109600
     13 CBA         -0.7370    -1.3660    -6.8100 ca         1 91K      -0.175000
     14 CAN         -2.6320    -2.8050    -6.4070 ca         1 91K      -0.087000
     15 CAM         -2.9860    -2.7090    -7.7380 ca         1 91K      -0.129000
     16 CAL         -2.2280    -1.9450    -8.6060 ca         1 91K      -0.123000
     17 CAK         -1.1010    -1.2740    -8.1450 ca         1 91K       0.122600
     18 NAJ         -0.3340    -0.5080    -9.0280 nu         1 91K      -0.730300
     19 CAI         -0.3350    -0.8000   -10.3760 cc         1 91K       0.748300
     20 SBB          0.4460     0.1320   -11.5760 ss         1 91K      -0.250300
     21 NAH         -0.9260    -1.8300   -10.9110 nd         1 91K      -0.768000
     22 CAG         -0.8330    -1.9670   -12.2090 cd         1 91K       0.497200
     23 CAF         -0.1070    -0.9840   -12.8220 cc         1 91K      -0.275000
     24 CAE          0.1630    -0.8790   -14.2540 c          1 91K       0.715700
     25 OBC         -0.2750    -1.7180   -15.0200 o          1 91K      -0.580100
     26 NAD          0.8960     0.1480   -14.7290 ns         1 91K      -0.482100
     27 CAC          1.0580     0.3140   -16.1080 ca         1 91K       0.063600
     28 CAB          1.4530    -0.7600   -16.8980 ca         1 91K       0.038400
     29 Cl1          1.7450    -2.3100   -16.1730 cl         1 91K      -0.073400
     30 CBH          1.6110    -0.5920   -18.2600 ca         1 91K      -0.119000
     31 CBG          1.3790     0.6430   -18.8380 ca         1 91K      -0.129000
     32 CBF          0.9860     1.7130   -18.0550 ca         1 91K      -0.121000
     33 CBD          0.8190     1.5500   -16.6930 ca         1 91K      -0.092300
     34 CBE          0.3860     2.7160   -15.8420 c3         1 91K      -0.045800
     35 H2           2.5850    -0.8900    -1.3580 hc         1 91K       0.034700
     36 H3           2.5850     0.8790    -1.3650 hc         1 91K       0.034700
     37 H4           0.2310     0.7760    -2.3590 hc         1 91K       0.077700
     38 H5          -0.5840    -1.4480    -1.9610 h1         1 91K       0.074200
     39 H6           0.9850    -2.1840    -2.3760 h1         1 91K       0.074200
     40 H7           2.6500    -0.4170    -3.7990 hc         1 91K       0.044200
     41 H8           1.8460     1.1510    -4.0950 hc         1 91K       0.044200
     42 H9           1.2880    -1.1480    -5.5400 h1         1 91K       0.030200
     43 H10          0.1240     0.1740    -5.3070 h1         1 91K       0.030200
     44 H11          0.1410    -0.8440    -6.4490 ha         1 91K       0.172000
     45 H12         -3.2290    -3.4050    -5.7310 ha         1 91K       0.157000
     46 H13         -3.8620    -3.2310    -8.1030 ha         1 91K       0.132000
     47 H14         -2.5100    -1.8730    -9.6490 ha         1 91K       0.162000
     48 H15          0.1950     0.2690    -8.6850 hn         1 91K       0.462800
     49 H16         -1.2900    -2.7870   -12.7490 h4         1 91K       0.065100
     50 H17          1.3590     0.7670   -14.0930 hn         1 91K       0.326500
     51 H18          1.9190    -1.4290   -18.8760 ha         1 91K       0.144000
     52 H19          1.5060     0.7730   -19.9060 ha         1 91K       0.133000
     53 H20          0.8030     2.6780   -18.5110 ha         1 91K       0.133000
     54 H21         -0.4750     2.4300   -15.2490 hc         1 91K       0.045367
     55 H22          1.1970     3.0050   -15.1840 hc         1 91K       0.045367
     56 H23          0.1240     3.5510   -16.4800 hc         1 91K       0.045367
@<TRIPOS>BOND
     1     1     2 1
     2     2     3 1
     3     2     4 1
     4     5     4 1
     5     5     7 1
     6     5     6 1
     7     7     8 1
     8     6     9 1
     9     9     8 1
    10     9    10 1
    11    11    10 2
    12    10    12 1
    13    13    12 ar
    14    13    17 ar
    15    12    14 ar
    16    18    17 1
    17    18    19 1
    18    21    19 2
    19    21    22 1
    20    17    16 ar
    21    19    20 1
    22    22    23 2
    23    14    15 ar
    24    16    15 ar
    25    23    20 1
    26    23    24 1
    27    34    33 1
    28    26    24 1
    29    26    27 1
    30    24    25 2
    31    33    27 ar
    32    33    32 ar
    33    27    28 ar
    34    32    31 ar
    35    28    29 1
    36    28    30 ar
    37    31    30 ar
    38     4    35 1
    39     4    36 1
    40     5    37 1
    41     6    38 1
    42     6    39 1
    43     7    40 1
    44     7    41 1
    45     8    42 1
    46     8    43 1
    47    13    44 1
    48    14    45 1
    49    15    46 1
    50    16    47 1
    51    18    48 1
    52    22    49 1
    53    26    50 1
    54    30    51 1
    55    31    52 1
    56    32    53 1
    57    34    54 1
    58    34    55 1
    59    34    56 1
@<TRIPOS>SUBSTRUCTURE
     1 91K         1 TEMP              0 ****  ****    0 ROOT
