@<TRIPOS>MOLECULE
molecule
   29    31     1     0     0
SMALL
bcc


@<TRIPOS>ATOM
      1 C01          0.0000     0.0000     0.0000 ca         1 91L      -0.088600
      2 C02         -0.7370     0.0050    -1.2790 c          1 91L       0.879200
      3 C05          1.4090     0.0000     0.0000 ca         1 91L       0.239600
      4 C07          2.1010     0.0000     1.2160 ca         1 91L      -0.180600
      5 C08          3.5740    -0.0020     1.2370 c          1 91L       0.591300
      6 C10          4.2790    -0.3080     2.5010 ca         1 91L      -0.122600
      7 C11          5.6390    -0.6000     2.5010 ca         1 91L      -0.093000
      8 C12          6.2810    -0.8850     3.6930 ca         1 91L      -0.132000
      9 C13          5.5810    -0.8810     4.8870 ca         1 91L      -0.132000
     10 C14          4.2270    -0.5940     4.9040 ca         1 91L      -0.094000
     11 C15          3.5660    -0.3060     3.7140 ca         1 91L      -0.121600
     12 C16          2.1200     0.0010     3.7110 c          1 91L       0.586300
     13 C18          1.3840    -0.0000     2.4300 ca         1 91L      -0.178600
     14 C19         -0.0120    -0.0010     2.4150 ca         1 91L       0.126100
     15 C21         -0.6970    -0.0020     1.2040 ca         1 91L      -0.136000
     16 N06          2.1030     0.0010    -1.1940 nv         1 91L      -0.948200
     17 O03         -2.0790     0.1290    -1.2820 o          1 91L      -0.821800
     18 O04         -0.1340    -0.1010    -2.3270 o          1 91L      -0.821800
     19 O09          4.2040     0.2450     0.2260 o          1 91L      -0.520100
     20 O17          1.5420     0.2510     4.7510 o          1 91L      -0.519100
     21 O20         -0.7010    -0.0010     3.5840 oh         1 91L      -0.502100
     22 H1           6.1940    -0.6050     1.5700 ha         1 91L       0.149000
     23 H2           7.3410    -1.1110     3.6920 ha         1 91L       0.124000
     24 H3           6.0950    -1.1050     5.8130 ha         1 91L       0.123000
     25 H4           3.6830    -0.5920     5.8410 ha         1 91L       0.148000
     26 H5          -1.7800     0.0020     1.1990 ha         1 91L       0.169000
     27 H6           2.3400     0.8670    -1.6350 hn         1 91L       0.433800
     28 H7           2.3760    -0.8660    -1.6150 hn         1 91L       0.433800
     29 H9          -1.2770    -0.7480     3.6090 ho         1 91L       0.411000
@<TRIPOS>BOND
     1     8     7 ar
     2     8     9 ar
     3     7     6 ar
     4    19     5 2
     5     9    10 ar
     6     6     5 1
     7     6    11 ar
     8    16     3 1
     9     5     4 1
    10    10    11 ar
    11     3     4 ar
    12     3     1 ar
    13    11    12 1
    14     4    13 ar
    15    18     2 1
    16     2     1 1
    17     2    17 1
    18     1    15 ar
    19    13    12 1
    20    13    14 ar
    21    12    20 2
    22    15    14 ar
    23    14    21 1
    24     7    22 1
    25     8    23 1
    26     9    24 1
    27    10    25 1
    28    15    26 1
    29    16    27 1
    30    16    28 1
    31    21    29 1
@<TRIPOS>SUBSTRUCTURE
     1 91L         1 TEMP              0 ****  ****    0 ROOT
