@<TRIPOS>MOLECULE
91L
   29    31     1     0     0
SMALL
bcc


@<TRIPOS>ATOM
      1 C01          0.0000     0.0000     0.0000 ca         1 91L      -0.083600
      2 C02         -0.7370     0.0050    -1.2790 c          1 91L       0.969200
      3 C05          1.4090     0.0000     0.0000 ca         1 91L       0.111600
      4 C07          2.1010     0.0000     1.2160 ca         1 91L      -0.186600
      5 C08          3.5740    -0.0020     1.2370 c          1 91L       0.650300
      6 C10          4.2790    -0.3080     2.5010 ca         1 91L      -0.127600
      7 C11          5.6390    -0.6000     2.5010 ca         1 91L      -0.064000
      8 C12          6.2810    -0.8850     3.6930 ca         1 91L      -0.108000
      9 C13          5.5810    -0.8810     4.8870 ca         1 91L      -0.108000
     10 C14          4.2270    -0.5940     4.9040 ca         1 91L      -0.066000
     11 C15          3.5660    -0.3060     3.7140 ca         1 91L      -0.125600
     12 C16          2.1200     0.0010     3.7110 c          1 91L       0.646300
     13 C18          1.3840    -0.0000     2.4300 ca         1 91L      -0.198600
     14 C19         -0.0120    -0.0010     2.4150 ca         1 91L       0.147100
     15 C21         -0.6970    -0.0020     1.2040 ca         1 91L      -0.118000
     16 N06          2.1030     0.0010    -1.1940 nv         1 91L      -0.514200
     17 O03         -2.0790     0.1290    -1.2820 o          1 91L      -0.873300
     18 O04         -0.1340    -0.1010    -2.3270 o          1 91L      -0.873300
     19 O09          4.2040     0.2450     0.2260 o          1 91L      -0.561100
     20 O17          1.5420     0.2510     4.7510 o          1 91L      -0.558100
     21 O20         -0.7010    -0.0010     3.5840 oh         1 91L      -0.479100
     22 H1           6.1940    -0.6050     1.5700 ha         1 91L       0.120000
     23 H2           7.3410    -1.1110     3.6920 ha         1 91L       0.096000
     24 H3           6.0950    -1.1050     5.8130 ha         1 91L       0.096000
     25 H4           3.6830    -0.5920     5.8410 ha         1 91L       0.119000
     26 H5          -1.7800     0.0020     1.1990 ha         1 91L       0.142000
     27 H6           2.3400     0.8670    -1.6350 hn         1 91L       0.276300
     28 H7           2.3760    -0.8660    -1.6150 hn         1 91L       0.276300
     29 H9          -1.2770    -0.7480     3.6090 ho         1 91L       0.392000
@<TRIPOS>BOND
     1     1     2 1   
     2     1     3 ar  
     3     1    15 ar  
     4     2    17 1   
     5     2    18 1   
     6     3     4 ar  
     7     3    16 1   
     8     4     5 1   
     9     4    13 ar  
    10     5     6 1   
    11     5    19 2   
    12     6     7 ar  
    13     6    11 ar  
    14     7     8 ar  
    15     7    22 1   
    16     8     9 ar  
    17     8    23 1   
    18     9    10 ar  
    19     9    24 1   
    20    10    11 ar  
    21    10    25 1   
    22    11    12 1   
    23    12    13 1   
    24    12    20 2   
    25    13    14 ar  
    26    14    15 ar  
    27    14    21 1   
    28    15    26 1   
    29    16    27 1   
    30    16    28 1   
    31    21    29 1   
@<TRIPOS>SUBSTRUCTURE
     1 91L         1 TEMP              0 ****  ****    0 ROOT
