@<TRIPOS>MOLECULE
molecule
   40    43     1     0     0
SMALL
bcc


@<TRIPOS>ATOM
      1 C1'          0.0000     0.0000     0.0000 c3         1 91N       0.243800
      2 C10         -1.6160     2.9890    -6.3900 cc         1 91N      -0.167000
      3 C11         -2.2490     4.0970    -6.9110 cd         1 91N      -0.163000
      4 C12         -3.2250     4.6030    -6.1490 cc         1 91N      -0.108100
      5 C2          -0.8300     2.1510    -1.0230 cd         1 91N       0.499700
      6 C2'          1.5450     0.0000     0.0000 c3         1 91N      -0.157400
      7 C3'          1.9210     0.0000     1.4980 c3         1 91N       0.103100
      8 C3A         -0.7640     0.4130    -2.3840 ca         1 91N       0.415800
      9 C4'          0.5580     0.0010     2.2270 c3         1 91N       0.128100
     10 C5          -0.9600    -0.8880    -4.2830 ca         1 91N       0.401200
     11 C5'          0.6280     0.8680     3.4850 c3         1 91N       0.228400
     12 C6          -1.4340     0.1730    -5.0310 ca         1 91N      -0.263300
     13 C7          -1.5830     1.4250    -4.4280 ca         1 91N       0.068000
     14 C7A         -1.2370     1.5460    -3.0660 ca         1 91N      -0.006900
     15 C9          -2.0850     2.5820    -5.1910 cd         1 91N       0.039900
     16 N1          -1.2510     2.5710    -2.1810 nc         1 91N      -0.636100
     17 N3          -0.5110     0.8290    -1.0940 na         1 91N      -0.242000
     18 N4          -0.6440    -0.7470    -3.0110 nb         1 91N      -0.695000
     19 O3'          2.6650    -1.1750     1.8280 oh         1 91N      -0.599800
     20 O4'         -0.3680     0.5680     1.2760 os         1 91N      -0.375600
     21 O5'         -0.6020     0.7620     4.2050 os         1 91N      -0.562200
     22 P           -0.8800     1.5440     5.5850 p5         1 91N       1.170900
     23 S8          -3.3850     3.6520    -4.6780 ss         1 91N      -0.071800
     24 H091        -0.3740    -1.0130    -0.0810 h2         1 91N       0.081700
     25 H181        -3.8250     5.4690    -6.3990 h4         1 91N       0.159000
     26 H111        -0.7460     2.7630    -0.1330 h5         1 91N       0.117800
     27 H241         1.9230     0.8920    -0.4840 hc         1 91N       0.055200
     28 H242         1.9230    -0.8920    -0.4840 hc         1 91N       0.055200
     29 H251         2.4810     0.8930     1.7470 h1         1 91N       0.053700
     30 H071         0.2660    -1.0120     2.4760 h1         1 91N       0.074700
     31 H211        -0.8170    -1.8970    -4.6510 h4         1 91N       0.015100
     32 H061         1.4440     0.5290     4.1130 h1         1 91N       0.025700
     33 H062         0.7940     1.9010     3.2040 h1         1 91N       0.025700
     34 H201        -1.7400    -0.2010    -6.0010 ha         1 91N       0.134000
     35 H1           3.5750    -0.9520     1.9290 ho         1 91N       0.391000
     36 OP3         -0.8920     3.1300     5.3090 o          1 91N      -0.904167
     37 H161        -0.8090     2.4810    -6.9040 ha         1 91N       0.142000
     38 OP2         -2.3070     1.0920     6.1790 o          1 91N      -0.904167
     39 OP1          0.1860     1.2200     6.5590 o          1 91N      -0.904167
     40 H171        -1.9750     4.5280    -7.8660 ha         1 91N       0.131000
@<TRIPOS>BOND
     1    10    12 ar  
     2    10    18 ar  
     3    12    13 ar  
     4    23     4 1   
     5    23    15 1   
     6    18     8 ar  
     7     4     3 2   
     8    13    15 1   
     9    13    14 ar  
    10    15     2 2   
    11     8    14 ar  
    12     8    17 1   
    13     3     2 1   
    14    14    16 1   
    15     6     1 1   
    16     6     7 1   
    17    17     1 1   
    18    17     5 1   
    19    16     5 2   
    20     1    20 1   
    21     7    19 1   
    22     7     9 1   
    23    20     9 1   
    24     9    11 1   
    25    11    21 1   
    26    21    22 1   
    27    22    39 1   
    28    22    38 1   
    29     1    24 1   
    30     2    37 1   
    31     3    40 1   
    32     4    25 1   
    33     5    26 1   
    34     6    27 1   
    35     6    28 1   
    36     7    29 1   
    37     9    30 1   
    38    10    31 1   
    39    11    32 1   
    40    11    33 1   
    41    12    34 1   
    42    19    35 1   
    43    22    36 1   
@<TRIPOS>SUBSTRUCTURE
     1 91N         1 TEMP              0 ****  ****    0 ROOT
