@<TRIPOS>MOLECULE
molecule
   40    41     1     0     0
SMALL
bcc


@<TRIPOS>ATOM
      1 C23          0.0000     0.0000     0.0000 ca         1 91O       0.154100
      2 C22          1.3840     0.0000     0.0000 ca         1 91O      -0.202000
      3 C21          8.3950    -0.1160     2.4330 ca         1 91O      -0.034000
      4 C20          9.7720    -0.1140     2.4230 ca         1 91O      -0.218500
      5 C19         12.4600    -0.1140    -0.0680 c3         1 91O       0.129700
      6 C10          4.1520    -0.0120     0.0170 c2         1 91O       0.031000
      7 C12          6.2110    -0.1240     1.2350 c          1 91O       0.624900
      8 C11          5.4990    -0.1300     0.0150 ce         1 91O      -0.609200
      9 C14          7.6900    -0.1220     1.2280 ca         1 91O      -0.193600
     10 C25          0.0920     0.0000    -2.3730 c3         1 91O       0.116700
     11 C15          8.3840    -0.1240     0.0160 ca         1 91O      -0.034000
     12 C01         -0.6950     0.0060     1.2200 ca         1 91O      -0.083600
     13 C02         -2.1660     0.0060     1.2330 c          1 91O       0.876200
     14 C05          0.0180     0.0120     2.4250 ca         1 91O      -0.060000
     15 C06          1.3840     0.0120     2.4130 ca         1 91O      -0.022600
     16 C08          2.0780     0.0000     1.2030 ca         1 91O       0.039600
     17 C16          9.7610    -0.1210     0.0130 ca         1 91O      -0.218500
     18 C17         10.4600    -0.1160     1.2150 ca         1 91O       0.153100
     19 N09          3.4700    -0.0010     1.2020 nu         1 91O      -0.466400
     20 O03         -2.8290     0.0130     2.4060 o          1 91O      -0.811800
     21 O04         -2.7820     0.0010     0.1850 o          1 91O      -0.811800
     22 O13          5.6070    -0.1210     2.2930 o          1 91O      -0.719100
     23 O18         11.8170    -0.1130     1.2080 os         1 91O      -0.333900
     24 O24         -0.6830     0.0000    -1.1720 os         1 91O      -0.253900
     25 Cl7          2.2610     0.0190     3.9120 cl         1 91O      -0.128400
     26 H1           1.9260    -0.0070    -0.9380 ha         1 91O       0.166000
     27 H2           7.8600    -0.1140     3.3750 ha         1 91O       0.162500
     28 H3          10.3200    -0.1100     3.3570 ha         1 91O       0.134500
     29 H4          13.5340    -0.1110     0.0690 h1         1 91O       0.039033
     30 H5          12.1680    -1.0010    -0.6180 h1         1 91O       0.039033
     31 H6          12.1640     0.7680    -0.6230 h1         1 91O       0.039033
     32 H7           4.0470     0.8900     0.6080 h4         1 91O       0.307000
     33 H8           5.6060    -1.0220     0.6190 ha         1 91O       0.139000
     34 H10          0.7170     0.8840    -2.3990 h1         1 91O       0.034367
     35 H11         -0.5710     0.0010    -3.2300 h1         1 91O       0.034367
     36 H12          0.7170    -0.8850    -2.4000 h1         1 91O       0.034367
     37 H13          7.8400    -0.1280    -0.9210 ha         1 91O       0.162500
     38 H14         -0.5150     0.0190     3.3680 ha         1 91O       0.186000
     39 H15         10.3000    -0.1220    -0.9270 ha         1 91O       0.134500
     40 H9           3.9700    -0.0360     2.0680 hn         1 91O       0.462800
@<TRIPOS>BOND
     1    21    13 1
     2    25    15 1
     3    14    15 ar
     4    14    12 ar
     5    13    12 1
     6    13    20 1
     7    15    16 ar
     8    12     1 ar
     9    16    19 1
    10    16     2 ar
    11     1     2 ar
    12     1    24 1
    13    19     6 1
    14    22     7 2
    15    10    24 1
    16     7     9 1
    17     7     8 1
    18     6     8 2
    19     3     9 ar
    20     3     4 ar
    21     9    11 ar
    22     4    18 ar
    23    11    17 ar
    24    18    17 ar
    25    18    23 1
    26    23     5 1
    27     2    26 1
    28     3    27 1
    29     4    28 1
    30     5    29 1
    31     5    30 1
    32     5    31 1
    33     6    32 1
    34     8    33 1
    35    10    34 1
    36    10    35 1
    37    10    36 1
    38    11    37 1
    39    14    38 1
    40    17    39 1
    41    19    40 1
@<TRIPOS>SUBSTRUCTURE
     1 91O         1 TEMP              0 ****  ****    0 ROOT
