@<TRIPOS>MOLECULE
91O
   40    41     1     0     0
SMALL
bcc


@<TRIPOS>ATOM
      1 C23          0.0000     0.0000     0.0000 ca         1 91O       0.195100
      2 C22          1.3840     0.0000     0.0000 ca         1 91O      -0.290000
      3 C21          8.3950    -0.1160     2.4330 ca         1 91O      -0.015000
      4 C20          9.7720    -0.1140     2.4230 ca         1 91O      -0.198500
      5 C19         12.4600    -0.1140    -0.0680 c3         1 91O       0.244700
      6 C10          4.1520    -0.0120     0.0170 c2         1 91O       0.058000
      7 C12          6.2110    -0.1240     1.2350 c          1 91O       0.670900
      8 C11          5.4990    -0.1300     0.0150 ce         1 91O      -0.479200
      9 C14          7.6900    -0.1220     1.2280 ca         1 91O      -0.194600
     10 C25          0.0920     0.0000    -2.3730 c3         1 91O       0.223700
     11 C15          8.3840    -0.1240     0.0160 ca         1 91O      -0.015000
     12 C01         -0.6950     0.0060     1.2200 ca         1 91O      -0.135600
     13 C02         -2.1660     0.0060     1.2330 c          1 91O       0.974200
     14 C05          0.0180     0.0120     2.4250 ca         1 91O      -0.007000
     15 C06          1.3840     0.0120     2.4130 ca         1 91O      -0.115600
     16 C08          2.0780     0.0000     1.2030 ca         1 91O      -0.009400
     17 C16          9.7610    -0.1210     0.0130 ca         1 91O      -0.198500
     18 C17         10.4600    -0.1160     1.2150 ca         1 91O       0.159100
     19 N09          3.4700    -0.0010     1.2020 nu         1 91O      -0.169400
     20 O03         -2.8290     0.0130     2.4060 o          1 91O      -0.873800
     21 O04         -2.7820     0.0010     0.1850 o          1 91O      -0.873800
     22 O13          5.6070    -0.1210     2.2930 o          1 91O      -0.649100
     23 O18         11.8170    -0.1130     1.2080 os         1 91O      -0.310900
     24 O24         -0.6830     0.0000    -1.1720 os         1 91O      -0.227900
     25 Cl7          2.2610     0.0190     3.9120 cl         1 91O      -0.056400
     26 H1           1.9260    -0.0070    -0.9380 ha         1 91O       0.122000
     27 H2           7.8600    -0.1140     3.3750 ha         1 91O       0.119000
     28 H3          10.3200    -0.1100     3.3570 ha         1 91O       0.115500
     29 H4          12.1640     0.7680    -0.6230 h1         1 91O      -0.004633
     30 H5          12.1680    -1.0010    -0.6180 h1         1 91O      -0.004633
     31 H6          13.5340    -0.1110     0.0690 h1         1 91O      -0.004633
     32 H7           3.6080    -0.0160    -0.9190 h4         1 91O       0.120000
     33 H8           6.0380    -0.1380    -0.9250 ha         1 91O       0.125000
     34 H10          0.7180     0.8840    -2.3980 h1         1 91O      -0.013967
     35 H11         -0.5710     0.0020    -3.2300 h1         1 91O      -0.013967
     36 H12          0.7150    -0.8850    -2.4000 h1         1 91O      -0.013967
     37 H13          7.8400    -0.1280    -0.9210 ha         1 91O       0.119000
     38 H14         -0.5150     0.0190     3.3680 ha         1 91O       0.146000
     39 H15         10.3000    -0.1220    -0.9270 ha         1 91O       0.115500
     40 H9           3.9710     0.0450     2.0670 hn         1 91O       0.369800
@<TRIPOS>BOND
     1     1     2 ar  
     2     1    12 ar  
     3     1    24 1   
     4     2    16 ar  
     5     2    26 1   
     6     3     4 ar  
     7     3     9 ar  
     8     3    27 1   
     9     4    18 ar  
    10     4    28 1   
    11     5    23 1   
    12     5    29 1   
    13     5    30 1   
    14     5    31 1   
    15     6     8 2   
    16     6    19 1   
    17     6    32 1   
    18     7     8 1   
    19     7     9 1   
    20     7    22 2   
    21     8    33 1   
    22     9    11 ar  
    23    10    24 1   
    24    10    34 1   
    25    10    35 1   
    26    10    36 1   
    27    11    17 ar  
    28    11    37 1   
    29    12    13 1   
    30    12    14 ar  
    31    13    20 1   
    32    13    21 1   
    33    14    15 ar  
    34    14    38 1   
    35    15    16 ar  
    36    15    25 1   
    37    16    19 1   
    38    17    18 ar  
    39    17    39 1   
    40    18    23 1   
    41    19    40 1   
@<TRIPOS>SUBSTRUCTURE
     1 91O         1 TEMP              0 ****  ****    0 ROOT
