@<TRIPOS>MOLECULE
molecule
   52    53     1     0     0
SMALL
bcc


@<TRIPOS>ATOM
      1 N            0.0000     0.0000     0.0000 no         1 91R       0.321200
      2 C            1.4800     0.0000     0.0000 cc         1 91R      -0.453500
      3 O           -0.6090    -0.0060    -1.0540 o          1 91R      -0.364000
      4 C1           2.2660     0.0000     1.0930 cd         1 91R      -0.048000
      5 C10          1.5040     1.4330    -2.9630 c3         1 91R      -0.137400
      6 C11          1.9610     1.4500    -4.4400 c3         1 91R       0.047100
      7 C12          2.4820     0.0160    -4.6880 c3         1 91R       0.095100
      8 C13          3.7050     0.0460    -5.6050 c3         1 91R       0.243400
      9 C2           3.6130    -0.0010     0.6440 cd         1 91R      -0.143000
     10 C3           4.7840    -0.0010     1.4680 ch         1 91R       0.178000
     11 C4           5.7530    -0.0160     2.1310 c1         1 91R      -0.340100
     12 C5           6.9360     0.0590     3.1060 c3         1 91R       0.138700
     13 C6           7.1010     1.7010     3.6840 c3         1 91R       0.085100
     14 C7           8.3450     2.1660     4.1000 c3         1 91R       0.148400
     15 C8           3.5800    -0.0010    -0.7180 cc         1 91R      -0.579300
     16 C9           1.8030    -0.0090    -2.4940 c3         1 91R       0.060800
     17 N1           2.2770    -0.0060    -1.1080 na         1 91R       0.305900
     18 O1          -0.6090     0.0000     1.0560 o          1 91R      -0.364000
     19 O10          5.3800    -0.7150    -0.7970 o          1 91R      -0.225000
     20 O11          4.3580    -1.8020    -2.9510 os         1 91R      -0.809800
     21 O12          3.5100    -3.3770    -1.2030 o          1 91R      -0.977167
     22 O13          2.8630    -3.4320    -3.7970 o          1 91R      -0.977167
     23 O14          5.0930    -3.9070    -3.4660 o          1 91R      -0.977167
     24 O15          2.8450    -0.4770    -3.3800 os         1 91R      -0.315600
     25 O2           6.4940     2.6710     2.6990 oh         1 91R      -0.542800
     26 O3           9.2660     1.9540     3.0560 oh         1 91R      -0.552800
     27 O4           0.8590     1.7410    -5.3010 oh         1 91R      -0.629800
     28 O6           4.6560     2.4130    -4.4420 o          1 91R      -0.835500
     29 O7           6.7890     1.3800    -3.5380 o          1 91R      -0.835500
     30 O8           4.3840     0.9350    -2.4690 os         1 91R      -0.709800
     31 O9           2.8460    -0.7810    -1.3360 o          1 91R      -0.225000
     32 P            5.1950     1.3270    -3.8860 p5         1 91R       1.431800
     33 P1           4.2600    -0.2690    -1.7520 p5         1 91R       2.462800
     34 P2           4.2040    -3.1790    -2.7910 p5         1 91R       1.393900
     35 H4           2.2470     0.0070     2.1760 ha         1 91R       0.112000
     36 H12          0.5100     1.8540    -2.8750 hc         1 91R       0.059200
     37 H13          2.2070     1.9830    -2.3490 hc         1 91R       0.059200
     38 H2           2.7590     2.1690    -4.5790 h1         1 91R       0.108700
     39 H3           1.6980    -0.5980    -5.1150 h1         1 91R       0.068700
     40 H15          3.5990    -0.7400    -6.3420 h1         1 91R      -0.029800
     41 H16          3.7230     0.9990    -6.1200 h1         1 91R      -0.029800
     42 H5           6.7580    -0.6040     3.9450 hc         1 91R       0.031700
     43 H6           7.8450    -0.2380     2.5970 hc         1 91R       0.031700
     44 H            6.4730     1.7520     4.5660 h1         1 91R      -0.010300
     45 H8           8.6620     1.6230     4.9830 h1         1 91R      -0.016800
     46 H9           8.2840     3.2240     4.3240 h1         1 91R      -0.016800
     47 H11          4.4390     0.0630    -1.3740 h4         1 91R      -0.933000
     48 H1           0.9190    -0.6270    -2.5960 h2         1 91R       0.113700
     49 H7           6.3040     3.4850     3.1350 ho         1 91R       0.346000
     50 H10         10.1160     2.2660     3.3190 ho         1 91R       0.359000
     51 H14          1.0420     2.5250    -5.7920 ho         1 91R       0.360000
     52 O5           4.8480    -0.1130    -4.9960 os         1 91R      -0.487200
@<TRIPOS>BOND
     1    21    34 1   
     2    23    34 1   
     3    34    22 1   
     4    34    20 1   
     5    31    33 1   
     6    28    32 1   
     7    20    33 1   
     8    33    19 1   
     9    33    30 1   
    10     8    52 1   
    11     8     7 1   
    12    32    30 1   
    13    32    52 1   
    14    32    29 1   
    15    27     6 1   
    16     7     6 1   
    17     7    24 1   
    18     6     5 1   
    19    24    16 1   
    20     5    16 1   
    21    16    17 1   
    22    15    17 1   
    23    15     9 2   
    24    17     2 1   
    25    26    14 1   
    26    14    13 1   
    27     9    10 1   
    28     9     4 1   
    29     3     1 1   
    30    12    13 1   
    31    12    11 1   
    32    10    11 3   
    33    13    25 1   
    34     2     1 1   
    35     2     4 2   
    36     1    18 1   
    37     4    35 1   
    38     5    36 1   
    39     5    37 1   
    40     6    38 1   
    41     7    39 1   
    42     8    40 1   
    43     8    41 1   
    44    12    42 1   
    45    12    43 1   
    46    13    44 1   
    47    14    45 1   
    48    14    46 1   
    49    15    47 1   
    50    16    48 1   
    51    25    49 1   
    52    26    50 1   
    53    27    51 1   
@<TRIPOS>SUBSTRUCTURE
     1 91R         1 TEMP              0 ****  ****    0 ROOT
