@<TRIPOS>MOLECULE
91S
   49    52     1     0     0
SMALL
bcc


@<TRIPOS>ATOM
      1 O1           0.0000     0.0000     0.0000 o          1 91S      -0.644100
      2 C18          1.2130     0.0000     0.0000 c          1 91S       0.590100
      3 C19          1.9650     0.0000     1.3060 c3         1 91S      -0.101400
      4 C20          0.9710     0.0000     2.4690 c3         1 91S       0.021900
      5 N3           1.8880    -0.0050    -1.1660 n          1 91S      -0.165800
      6 C15          1.1720    -0.0110    -2.4520 c3         1 91S       0.049500
      7 C14          1.7310     1.1160    -3.3250 c3         1 91S       0.133800
      8 C16          3.3580     0.0010    -1.1880 c3         1 91S       0.049500
      9 C17          3.8270     1.1280    -2.1140 c3         1 91S       0.133800
     10 N2           3.1910     0.9770    -3.4250 nh         1 91S      -0.514300
     11 C10          3.7130     1.8750    -4.3320 ca         1 91S       0.540200
     12 N            3.5930     3.1820    -4.1400 nb         1 91S      -0.656000
     13 C11          4.0890     4.0560    -5.0020 ca         1 91S       0.635900
     14 N1           4.7250     3.7000    -6.0920 nb         1 91S      -0.591000
     15 C12          4.9020     2.4020    -6.3840 ca         1 91S       0.369600
     16 C9           4.3940     1.4270    -5.4890 ca         1 91S      -0.228600
     17 C8           4.5690     0.0650    -5.7630 ca         1 91S      -0.067000
     18 C7           5.2320    -0.3210    -6.8890 ca         1 91S      -0.008600
     19 Cl           5.4450    -2.0100    -7.2230 cl         1 91S       0.005600
     20 C13          5.5760     1.9880    -7.5400 ca         1 91S       0.086600
     21 F1           6.0740     2.9020    -8.4030 f          1 91S      -0.108900
     22 C6           5.7450     0.6330    -7.7830 cp         1 91S      -0.016000
     23 C5           6.4620     0.1880    -9.0000 cp         1 91S      -0.122000
     24 C            5.7590    -0.0340   -10.1890 ca         1 91S       0.195100
     25 O            4.4150     0.1570   -10.2310 oh         1 91S      -0.478100
     26 C4           7.8430    -0.0060    -8.9680 ca         1 91S       0.164900
     27 F            8.5320     0.2110    -7.8270 f          1 91S      -0.122900
     28 C3           8.5080    -0.4210   -10.1090 ca         1 91S      -0.166000
     29 C2           7.8060    -0.6440   -11.2800 ca         1 91S      -0.026000
     30 C1           6.4390    -0.4500   -11.3220 ca         1 91S      -0.198000
     31 H1           2.5880    -0.8850     1.3640 hc         1 91S       0.026700
     32 H2           2.5880     0.8840     1.3640 hc         1 91S       0.026700
     33 H3           0.3450     0.8820     2.4090 hc         1 91S       0.009367
     34 H4           0.3510    -0.8870     2.4140 hc         1 91S       0.009367
     35 H5           1.5120     0.0050     3.4070 hc         1 91S       0.009367
     36 H6           0.1150     0.1530    -2.2800 h1         1 91S       0.035700
     37 H7           1.3220    -0.9630    -2.9470 h1         1 91S       0.035700
     38 H8           1.4900     2.0720    -2.8770 h1         1 91S       0.028700
     39 H9           1.2950     1.0550    -4.3150 h1         1 91S       0.028700
     40 H10          3.7190    -0.9500    -1.5610 h1         1 91S       0.035700
     41 H11          3.7350     0.1730    -0.1870 h1         1 91S       0.035700
     42 H12          4.9030     1.0760    -2.2280 h1         1 91S       0.028700
     43 H13          3.5490     2.0840    -1.6870 h1         1 91S       0.028700
     44 H14          3.9640     5.1130    -4.7970 h5         1 91S       0.003100
     45 H15          4.2310    -0.6790    -5.0520 ha         1 91S       0.139000
     46 H16          4.1820     0.5720   -11.0450 ho         1 91S       0.410000
     47 H17          9.5800    -0.5740   -10.0840 ha         1 91S       0.125000
     48 H18          8.3320    -0.9700   -12.1690 ha         1 91S       0.107000
     49 H19          5.8960    -0.6250   -12.2430 ha         1 91S       0.117000
@<TRIPOS>BOND
     1     1     2 2   
     2     2     3 1   
     3     2     5 1   
     4     3     4 1   
     5     3    31 1   
     6     3    32 1   
     7     4    33 1   
     8     4    34 1   
     9     4    35 1   
    10     5     6 1   
    11     5     8 1   
    12     6     7 1   
    13     6    36 1   
    14     6    37 1   
    15     7    10 1   
    16     7    38 1   
    17     7    39 1   
    18     8     9 1   
    19     8    40 1   
    20     8    41 1   
    21     9    10 1   
    22     9    42 1   
    23     9    43 1   
    24    10    11 1   
    25    11    12 ar  
    26    11    16 ar  
    27    12    13 ar  
    28    13    14 ar  
    29    13    44 1   
    30    14    15 ar  
    31    15    16 ar  
    32    15    20 ar  
    33    16    17 ar  
    34    17    18 ar  
    35    17    45 1   
    36    18    19 1   
    37    18    22 ar  
    38    20    21 1   
    39    20    22 ar  
    40    22    23 1   
    41    23    24 ar  
    42    23    26 ar  
    43    24    25 1   
    44    24    30 ar  
    45    25    46 1   
    46    26    27 1   
    47    26    28 ar  
    48    28    29 ar  
    49    28    47 1   
    50    29    30 ar  
    51    29    48 1   
    52    30    49 1   
@<TRIPOS>SUBSTRUCTURE
     1 91S         1 TEMP              0 ****  ****    0 ROOT
