@<TRIPOS>MOLECULE
molecule
   49    52     1     0     0
SMALL
bcc


@<TRIPOS>ATOM
      1 O1           0.0000     0.0000     0.0000 o          1 91S      -0.607100
      2 C18          1.2130     0.0000     0.0000 c          1 91S       0.663100
      3 C19          1.9650     0.0000     1.3060 c3         1 91S      -0.159400
      4 C20          0.9710     0.0000     2.4690 c3         1 91S      -0.077100
      5 N3           1.8880    -0.0050    -1.1660 n          1 91S      -0.498800
      6 C15          1.1720    -0.0110    -2.4520 c3         1 91S       0.107000
      7 C14          1.7310     1.1160    -3.3250 c3         1 91S       0.150300
      8 C16          3.3580     0.0010    -1.1880 c3         1 91S       0.107000
      9 C17          3.8270     1.1280    -2.1140 c3         1 91S       0.150300
     10 N2           3.1910     0.9770    -3.4250 nh         1 91S      -0.725300
     11 C10          3.7130     1.8750    -4.3320 ca         1 91S       0.665200
     12 N            3.5930     3.1820    -4.1400 nb         1 91S      -0.777000
     13 C11          4.0890     4.0560    -5.0020 ca         1 91S       0.691900
     14 N1           4.7250     3.7000    -6.0920 nb         1 91S      -0.709000
     15 C12          4.9020     2.4020    -6.3840 ca         1 91S       0.410600
     16 C9           4.3940     1.4270    -5.4890 ca         1 91S      -0.236600
     17 C8           4.5690     0.0650    -5.7630 ca         1 91S      -0.090000
     18 C7           5.2320    -0.3210    -6.8890 ca         1 91S       0.057400
     19 Cl           5.4450    -2.0100    -7.2230 cl         1 91S      -0.080400
     20 C13          5.5760     1.9880    -7.5400 ca         1 91S       0.112600
     21 F1           6.0740     2.9020    -8.4030 f          1 91S      -0.106900
     22 C6           5.7450     0.6330    -7.7830 cp         1 91S      -0.033000
     23 C5           6.4620     0.1880    -9.0000 cp         1 91S      -0.119000
     24 C            5.7590    -0.0340   -10.1890 ca         1 91S       0.179100
     25 O            4.4150     0.1570   -10.2310 oh         1 91S      -0.495100
     26 C4           7.8430    -0.0060    -8.9680 ca         1 91S       0.188900
     27 F            8.5320     0.2110    -7.8270 f          1 91S      -0.127900
     28 C3           8.5080    -0.4210   -10.1090 ca         1 91S      -0.195000
     29 C2           7.8060    -0.6440   -11.2800 ca         1 91S      -0.061000
     30 C1           6.4390    -0.4500   -11.3220 ca         1 91S      -0.218000
     31 H1           2.5880    -0.8850     1.3640 hc         1 91S       0.058200
     32 H2           2.5880     0.8840     1.3640 hc         1 91S       0.058200
     33 H3           0.3450     0.8820     2.4090 hc         1 91S       0.044033
     34 H4           0.3510    -0.8870     2.4140 hc         1 91S       0.044033
     35 H5           1.5120     0.0050     3.4070 hc         1 91S       0.044033
     36 H6           0.1150     0.1530    -2.2800 h1         1 91S       0.064950
     37 H7           1.3220    -0.9630    -2.9470 h1         1 91S       0.064950
     38 H8           1.4900     2.0720    -2.8770 h1         1 91S       0.058450
     39 H9           1.2950     1.0550    -4.3150 h1         1 91S       0.058450
     40 H10          3.7190    -0.9500    -1.5610 h1         1 91S       0.064950
     41 H11          3.7350     0.1730    -0.1870 h1         1 91S       0.064950
     42 H12          4.9030     1.0760    -2.2280 h1         1 91S       0.058450
     43 H13          3.5490     2.0840    -1.6870 h1         1 91S       0.058450
     44 H14          3.9640     5.1130    -4.7970 h5         1 91S       0.063100
     45 H15          4.2310    -0.6790    -5.0520 ha         1 91S       0.171000
     46 H16          4.1820     0.5720   -11.0450 ho         1 91S       0.429000
     47 H17          9.5800    -0.5740   -10.0840 ha         1 91S       0.151000
     48 H18          8.3320    -0.9700   -12.1690 ha         1 91S       0.141000
     49 H19          5.8960    -0.6250   -12.2430 ha         1 91S       0.141000
@<TRIPOS>BOND
     1     4     3 1
     2     1     2 2
     3     3     2 1
     4     2     5 1
     5     5     6 1
     6     5     8 1
     7     6     7 1
     8     8     9 1
     9     7    10 1
    10     9    10 1
    11    10    11 1
    12    19    18 1
    13    17    18 ar
    14    17    16 ar
    15    11    16 ar
    16    11    12 ar
    17    18    22 ar
    18    16    15 ar
    19    12    13 ar
    20    27    26 1
    21    22    20 ar
    22    22    23 1
    23    15    20 ar
    24    15    14 ar
    25    13    14 ar
    26    26    23 ar
    27    26    28 ar
    28    20    21 1
    29    23    24 ar
    30    28    29 ar
    31    24    25 1
    32    24    30 ar
    33    29    30 ar
    34     3    31 1
    35     3    32 1
    36     4    33 1
    37     4    34 1
    38     4    35 1
    39     6    36 1
    40     6    37 1
    41     7    38 1
    42     7    39 1
    43     8    40 1
    44     8    41 1
    45     9    42 1
    46     9    43 1
    47    13    44 1
    48    17    45 1
    49    25    46 1
    50    28    47 1
    51    29    48 1
    52    30    49 1
@<TRIPOS>SUBSTRUCTURE
     1 91S         1 TEMP              0 ****  ****    0 ROOT
