@<TRIPOS>MOLECULE
molecule
   52    53     1     0     0
SMALL
bcc


@<TRIPOS>ATOM
      1 N            0.0000     0.0000     0.0000 no         1 91T       0.241200
      2 C            1.4810     0.0000     0.0000 cc         1 91T      -0.162500
      3 O           -0.6080     0.0010     1.0560 o          1 91T      -0.302000
      4 C1           2.2660     0.0000     1.0930 cd         1 91T      -0.206000
      5 C10          1.5080     1.4290    -2.9780 c3         1 91T      -0.163400
      6 C11          1.6610     1.2950    -4.5130 c3         1 91T       0.179100
      7 C12          2.5170     0.0270    -4.6980 c3         1 91T      -0.114900
      8 C13          3.7970     0.3700    -5.4630 c3         1 91T      -0.959600
      9 C2           3.6140    -0.0000     0.6440 cd         1 91T      -0.185000
     10 C3           4.7850    -0.0010     1.4660 ch         1 91T       0.068000
     11 C4           5.7350    -0.0130     2.1550 c1         1 91T      -0.342100
     12 C5           7.0160    -0.2860     2.7100 c3         1 91T       0.026700
     13 C6           7.8310     0.7690     2.0060 c3         1 91T       0.224100
     14 C7           8.6760     1.9510     3.0680 c3         1 91T      -0.010600
     15 C8           3.5800    -0.0010    -0.7180 cc         1 91T      -0.025300
     16 C9           1.8030    -0.0130    -2.4950 c3         1 91T       0.244800
     17 N1           2.2760    -0.0060    -1.1080 na         1 91T       0.003900
     18 O1          -0.6090     0.0050    -1.0540 o          1 91T      -0.302000
     19 O10          3.2400    -1.3000    -7.9550 o          1 91T      -0.569000
     20 O11          1.3140    -0.5560    -6.2570 os         1 91T      -0.490800
     21 O12         -0.9540    -0.2070    -6.8800 o          1 91T      -0.846167
     22 O13          0.2880    -1.9320    -7.9000 o          1 91T      -0.846167
     23 O14          0.6940     0.5920    -8.6030 o          1 91T      -0.846167
     24 O15          2.8470    -0.4600    -3.3860 os         1 91T      -0.448600
     25 O2           7.6030     1.5860     1.0680 oh         1 91T      -0.508800
     26 O3           9.9300     1.0990     3.2300 oh         1 91T      -0.627800
     27 O6           5.3350    -2.5260    -3.9820 o          1 91T      -0.383500
     28 O7           5.9260    -1.9980    -6.5900 o          1 91T      -0.383500
     29 O8           4.0180    -0.8160    -5.2480 os         1 91T       1.196200
     30 O9           2.7110    -2.8680    -6.3110 o          1 91T      -0.569000
     31 P            5.5050    -1.4550    -4.8930 p5         1 91T      -0.852200
     32 P1           2.8380    -1.3570    -6.2980 p5         1 91T       0.592800
     33 P2           0.3750    -0.7650    -7.5450 p5         1 91T       1.447900
     34 H4           2.0270     0.4500     2.0490 ha         1 91T       0.125000
     35 H13          0.6170     1.9990    -2.7410 hc         1 91T       0.028200
     36 H12          2.3860     1.9040    -2.5570 hc         1 91T       0.028200
     37 H2           2.1750     2.1580    -4.9180 h1         1 91T       0.027700
     38 H3           1.9500    -0.7230    -5.2350 h1         1 91T       0.240700
     39 H15          4.2110     1.2940    -5.0780 h1         1 91T      -0.366800
     40 H16          4.5180    -0.4290    -5.3370 h1         1 91T      -0.366800
     41 H5           7.0200    -0.1350     3.7830 hc         1 91T       0.053200
     42 H6           7.3530    -1.2820     2.4480 hc         1 91T       0.053200
     43 H            8.6330     0.1690     1.5930 h1         1 91T       0.065700
     44 H8           8.1580     2.0970     4.0080 h1         1 91T       0.028200
     45 H9           8.8810     2.8840     2.5560 h1         1 91T       0.028200
     46 H11          4.4390    -0.0600    -1.3750 h4         1 91T       0.214000
     47 H1           0.9220    -0.6360    -2.6010 h2         1 91T       0.111700
     48 H7           6.9640     2.2190     1.3510 ho         1 91T       0.403000
     49 H10         10.5760     1.5800     3.7200 ho         1 91T       0.354000
     50 H14          0.1160     1.9440    -5.5240 ho         1 91T       0.371000
     51 O4           0.3830     1.1300    -5.1310 oh         1 91T      -0.490800
     52 O5           4.5280    -0.8280    -5.7310 os         1 91T       1.013800
@<TRIPOS>BOND
     1     1     2 1
     2     1     3 1
     3     1    18 1
     4     2     4 2
     5     2    17 1
     6     4     9 1
     7     5     6 1
     8     5    16 1
     9     6     7 1
    10     6    51 1
    11     7     8 1
    12     7    24 1
    13     8    52 1
    14     9    10 1
    15     9    15 2
    16    10    11 3
    17    11    12 1
    18    12    13 1
    19    13    14 1
    20    13    25 1
    21    14    26 1
    22    15    17 1
    23    16    17 1
    24    16    24 1
    25    19    32 1
    26    20    32 1
    27    20    33 1
    28    21    33 1
    29    22    33 1
    30    23    33 1
    31    52    31 1
    32    27    31 1
    33    28    31 1
    34    29    31 1
    35    29    32 1
    36    30    32 1
    37     4    34 1
    38     5    35 1
    39     5    36 1
    40     6    37 1
    41     7    38 1
    42     8    39 1
    43     8    40 1
    44    12    41 1
    45    12    42 1
    46    13    43 1
    47    14    44 1
    48    14    45 1
    49    15    46 1
    50    16    47 1
    51    25    48 1
    52    26    49 1
    53    51    50 1
@<TRIPOS>SUBSTRUCTURE
     1 91T         1 TEMP              0 ****  ****    0 ROOT
