@<TRIPOS>MOLECULE
91V
   66    70     1     0     0
SMALL
bcc


@<TRIPOS>ATOM
      1 C5           0.0000     0.0000     0.0000 c3         1 91V       0.150300
      2 C6           1.5310     0.0000     0.0000 c3         1 91V      -0.038900
      3 C7           2.0370     0.0000     1.4450 c3         1 91V       0.173100
      4 C8           1.4710     1.2220     2.1750 c3         1 91V      -0.038900
      5 C13          0.6660    -3.2050     3.8350 ca         1 91V      -0.083500
      6 C15          0.2560    -3.6800     6.1460 ca         1 91V      -0.097500
      7 C17          2.0200    -2.1840     5.5250 ca         1 91V      -0.083500
      8 C20          5.7330    -3.4650     2.4670 ca         1 91V      -0.103750
      9 C21          5.3680    -4.3180     1.4430 ca         1 91V      -0.097500
     10 C22          4.0710    -4.3070     0.9640 ca         1 91V      -0.103750
     11 C24         -4.3750     4.1310     1.5630 c3         1 91V       0.158800
     12 C26         -6.4760     5.3950     1.8870 cc         1 91V       0.572200
     13 C28         -8.5190     6.6090     2.2080 cd         1 91V       0.074000
     14 C1          -3.9260     2.7670     1.0360 c3         1 91V      -0.040400
     15 C2          -2.4030     2.6580     1.1380 c3         1 91V      -0.032400
     16 N4          -0.4910     1.1880     0.7090 n3         1 91V      -0.541600
     17 C9          -0.0570     1.1860     2.1120 c3         1 91V       0.150300
     18 O10          1.6040    -1.1930     2.1030 os         1 91V      -0.400600
     19 C11          2.4910    -1.6460     3.1270 c3         1 91V       0.292700
     20 C12          1.7040    -2.3650     4.1920 ca         1 91V      -0.111800
     21 C14         -0.0600    -3.8600     4.8120 ca         1 91V      -0.103750
     22 C16          1.2980    -2.8440     6.5020 ca         1 91V      -0.103750
     23 C18          3.5070    -2.5870     2.5310 ca         1 91V      -0.111800
     24 C19          4.8020    -2.6020     3.0140 ca         1 91V      -0.083500
     25 C23          3.1400    -3.4440     1.5100 ca         1 91V      -0.083500
     26 N25         -5.8330     4.2370     1.4650 nu         1 91V      -0.482900
     27 C27         -7.8790     5.4840     1.7940 cc         1 91V      -0.304300
     28 C29         -7.7620     7.6750     2.7300 cd         1 91V      -0.358300
     29 N30         -8.0720     8.8700     3.2090 nc         1 91V      -0.043000
     30 N31         -6.9940     9.4780     3.5640 nc         1 91V      -0.342700
     31 C32         -5.9510     8.7180     3.3340 cd         1 91V       0.168700
     32 N33         -6.3960     7.5590     2.8020 na         1 91V       0.616300
     33 N34         -5.7700     6.3880     2.3720 nd         1 91V      -0.734800
     34 H1          -0.3600    -0.8910     0.5000 h1         1 91V       0.016200
     35 H2          -0.3590     0.0170    -1.0220 h1         1 91V       0.016200
     36 H3           1.8910    -0.8860    -0.5080 hc         1 91V       0.025950
     37 H4           1.8910     0.8860    -0.5080 hc         1 91V       0.025950
     38 H5           3.1190     0.0480     1.4470 h1         1 91V       0.013700
     39 H6           1.7900     1.2040     3.2100 hc         1 91V       0.025950
     40 H7           1.8300     2.1260     1.6960 hc         1 91V       0.025950
     41 H8           0.4180    -3.3460     2.7900 ha         1 91V       0.109000
     42 H9          -0.3110    -4.1950     6.9120 ha         1 91V       0.102000
     43 H10          2.8350    -1.5280     5.8040 ha         1 91V       0.109000
     44 H11          6.7490    -3.4750     2.8440 ha         1 91V       0.102750
     45 H12          6.0980    -4.9950     1.0150 ha         1 91V       0.102000
     46 H13          3.7850    -4.9770     0.1620 ha         1 91V       0.102750
     47 H14         -3.9150     4.9160     0.9740 h1         1 91V       0.031200
     48 H15         -4.0740     4.2350     2.5990 h1         1 91V       0.031200
     49 H16         -9.5980     6.6830     2.1400 ha         1 91V       0.124000
     50 H17         -4.3850     1.9830     1.6250 hc         1 91V       0.017200
     51 H18         -4.2260     2.6640    -0.0000 hc         1 91V       0.017200
     52 H19         -2.1020     2.7610     2.1740 hc         1 91V       0.028700
     53 H20         -1.9440     3.4420     0.5490 hc         1 91V       0.028700
     54 H21         -2.4120     0.5080     1.2010 h1         1 91V       0.008700
     55 H22         -2.2530     1.1890    -0.4250 h1         1 91V       0.008700
     56 H24         -0.4150     0.2860     2.5980 h1         1 91V       0.016200
     57 H25         -0.4580     2.0580     2.6140 h1         1 91V       0.016200
     58 H26          3.0000    -0.7960     3.5660 h1         1 91V       0.018700
     59 H27         -0.8750    -4.5170     4.5330 ha         1 91V       0.102750
     60 H28          1.5460    -2.7020     7.5470 ha         1 91V       0.102750
     61 H29          5.0890    -1.9330     3.8170 ha         1 91V       0.109000
     62 H30          2.1240    -3.4350     1.1340 ha         1 91V       0.109000
     63 H31         -6.3650     3.4750     1.0940 hn         1 91V       0.298800
     64 H32         -8.4480     4.6550     1.3920 ha         1 91V       0.126000
     65 H33         -4.9180     8.9730     3.5360 h5         1 91V       0.045800
     66 C3          -1.9530     1.2930     0.6110 c3         1 91V       0.154800
@<TRIPOS>BOND
     1     1     2 1   
     2     1    16 1   
     3     1    34 1   
     4     1    35 1   
     5     2     3 1   
     6     2    36 1   
     7     2    37 1   
     8     3     4 1   
     9     3    18 1   
    10     3    38 1   
    11     4    17 1   
    12     4    39 1   
    13     4    40 1   
    14     5    20 ar  
    15     5    21 ar  
    16     5    41 1   
    17     6    21 ar  
    18     6    22 ar  
    19     6    42 1   
    20     7    20 ar  
    21     7    22 ar  
    22     7    43 1   
    23     8     9 ar  
    24     8    24 ar  
    25     8    44 1   
    26     9    10 ar  
    27     9    45 1   
    28    10    25 ar  
    29    10    46 1   
    30    11    14 1   
    31    11    26 1   
    32    11    47 1   
    33    11    48 1   
    34    12    26 1   
    35    12    27 1   
    36    12    33 2   
    37    13    27 2   
    38    13    28 1   
    39    13    49 1   
    40    14    15 1   
    41    14    50 1   
    42    14    51 1   
    43    15    52 1   
    44    15    53 1   
    45    15    66 1   
    46    16    17 1   
    47    16    66 1   
    48    17    56 1   
    49    17    57 1   
    50    18    19 1   
    51    19    20 1   
    52    19    23 1   
    53    19    58 1   
    54    21    59 1   
    55    22    60 1   
    56    23    24 ar  
    57    23    25 ar  
    58    24    61 1   
    59    25    62 1   
    60    26    63 1   
    61    27    64 1   
    62    28    29 2   
    63    28    32 1   
    64    29    30 1   
    65    30    31 2   
    66    31    32 1   
    67    31    65 1   
    68    32    33 1   
    69    54    66 1   
    70    55    66 1   
@<TRIPOS>SUBSTRUCTURE
     1 91V         1 TEMP              0 ****  ****    0 ROOT
