@<TRIPOS>MOLECULE
molecule
   66    70     1     0     0
SMALL
bcc


@<TRIPOS>ATOM
      1 C5           0.0000     0.0000     0.0000 c3         1 91V       0.165300
      2 C6           1.5310     0.0000     0.0000 c3         1 91V      -0.086400
      3 C7           2.0370     0.0000     1.4450 c3         1 91V       0.139100
      4 C8           1.4710     1.2220     2.1750 c3         1 91V      -0.086400
      5 C13          0.6660    -3.2050     3.8350 ca         1 91V      -0.109500
      6 C15          0.2560    -3.6800     6.1460 ca         1 91V      -0.124000
      7 C17          2.0200    -2.1840     5.5250 ca         1 91V      -0.109500
      8 C20          5.7330    -3.4650     2.4670 ca         1 91V      -0.130750
      9 C21          5.3680    -4.3180     1.4430 ca         1 91V      -0.124000
     10 C22          4.0710    -4.3070     0.9640 ca         1 91V      -0.130750
     11 C24         -4.3750     4.1310     1.5630 c3         1 91V       0.236800
     12 C26         -6.4760     5.3950     1.8870 cc         1 91V       0.678200
     13 C28         -8.5190     6.6090     2.2080 cd         1 91V       0.002000
     14 C1          -3.9260     2.7670     1.0360 c3         1 91V      -0.103400
     15 C2          -2.4030     2.6580     1.1380 c3         1 91V      -0.078400
     16 N4          -0.4910     1.1880     0.7090 n3         1 91V      -0.733600
     17 C9          -0.0570     1.1860     2.1120 c3         1 91V       0.165300
     18 O10          1.6040    -1.1930     2.1030 os         1 91V      -0.419600
     19 C11          2.4910    -1.6460     3.1270 c3         1 91V       0.238700
     20 C12          1.7040    -2.3650     4.1920 ca         1 91V      -0.096800
     21 C14         -0.0600    -3.8600     4.8120 ca         1 91V      -0.130750
     22 C16          1.2980    -2.8440     6.5020 ca         1 91V      -0.130750
     23 C18          3.5070    -2.5870     2.5310 ca         1 91V      -0.096800
     24 C19          4.8020    -2.6020     3.0140 ca         1 91V      -0.109500
     25 C23          3.1400    -3.4440     1.5100 ca         1 91V      -0.109500
     26 N25         -5.8330     4.2370     1.4650 nu         1 91V      -0.907900
     27 C27         -7.8790     5.4840     1.7940 cc         1 91V      -0.288300
     28 C29         -7.7620     7.6750     2.7300 cd         1 91V      -0.158300
     29 N30         -8.0720     8.8700     3.2090 nc         1 91V      -0.066000
     30 N31         -6.9940     9.4780     3.5640 nc         1 91V      -0.368700
     31 C32         -5.9510     8.7180     3.3340 cd         1 91V       0.352700
     32 N33         -6.3960     7.5590     2.8020 na         1 91V       0.115300
     33 N34         -5.7700     6.3880     2.3720 nd         1 91V      -0.581800
     34 H1          -0.3600    -0.8910     0.5000 h1         1 91V       0.040450
     35 H2          -0.3590     0.0170    -1.0220 h1         1 91V       0.040450
     36 H3           1.8910    -0.8860    -0.5080 hc         1 91V       0.054700
     37 H4           1.8910     0.8860    -0.5080 hc         1 91V       0.054700
     38 H5           3.1190     0.0480     1.4470 h1         1 91V       0.042700
     39 H6           1.7900     1.2040     3.2100 hc         1 91V       0.054700
     40 H7           1.8300     2.1260     1.6960 hc         1 91V       0.054700
     41 H8           0.4180    -3.3460     2.7900 ha         1 91V       0.134000
     42 H9          -0.3110    -4.1950     6.9120 ha         1 91V       0.129000
     43 H10          2.8350    -1.5280     5.8040 ha         1 91V       0.134000
     44 H11          6.7490    -3.4750     2.8440 ha         1 91V       0.130000
     45 H12          6.0980    -4.9950     1.0150 ha         1 91V       0.129000
     46 H13          3.7850    -4.9770     0.1620 ha         1 91V       0.130000
     47 H14         -3.9150     4.9160     0.9740 h1         1 91V       0.055700
     48 H15         -4.0740     4.2350     2.5990 h1         1 91V       0.055700
     49 H16         -9.5980     6.6830     2.1400 ha         1 91V       0.166000
     50 H17         -4.3850     1.9830     1.6250 hc         1 91V       0.046200
     51 H18         -4.2260     2.6640    -0.0000 hc         1 91V       0.046200
     52 H19         -2.1020     2.7610     2.1740 hc         1 91V       0.054700
     53 H20         -1.9440     3.4420     0.5490 hc         1 91V       0.054700
     54 H21         -2.4120     0.5080     1.2010 h1         1 91V       0.033200
     55 H22         -2.2530     1.1890    -0.4250 h1         1 91V       0.033200
     56 H24         -0.4150     0.2860     2.5980 h1         1 91V       0.040450
     57 H25         -0.4580     2.0580     2.6140 h1         1 91V       0.040450
     58 H26          3.0000    -0.7960     3.5660 h1         1 91V       0.048700
     59 H27         -0.8750    -4.5170     4.5330 ha         1 91V       0.130000
     60 H28          1.5460    -2.7020     7.5470 ha         1 91V       0.130000
     61 H29          5.0890    -1.9330     3.8170 ha         1 91V       0.134000
     62 H30          2.1240    -3.4350     1.1340 ha         1 91V       0.134000
     63 H31         -6.3650     3.4750     1.0940 hn         1 91V       0.453800
     64 H32         -8.4480     4.6550     1.3920 ha         1 91V       0.147000
     65 H33         -4.9180     8.9730     3.5360 h5         1 91V       0.089800
     66 C3          -1.9530     1.2930     0.6110 c3         1 91V       0.164800
@<TRIPOS>BOND
     1    10     9 ar  
     2    10    25 ar  
     3     9     8 ar  
     4    25    23 ar  
     5     8    24 ar  
     6    23    24 ar  
     7    23    19 1   
     8    22     7 ar  
     9    22     6 ar  
    10     7    20 ar  
    11     6    21 ar  
    12    20    19 1   
    13    20     5 ar  
    14    19    18 1   
    15    21     5 ar  
    16    18     3 1   
    17     4     3 1   
    18     4    17 1   
    19     3     2 1   
    20    17    16 1   
    21     2     1 1   
    22     1    16 1   
    23    16    66 1   
    24    66    15 1   
    25    15    14 1   
    26    14    11 1   
    27    26    11 1   
    28    26    12 1   
    29    27    12 1   
    30    27    13 2   
    31    12    33 2   
    32    13    28 1   
    33    33    32 1   
    34    28    32 1   
    35    28    29 2   
    36    32    31 1   
    37    29    30 1   
    38    31    30 2   
    39     1    34 1   
    40     1    35 1   
    41     2    36 1   
    42     2    37 1   
    43     3    38 1   
    44     4    39 1   
    45     4    40 1   
    46     5    41 1   
    47     6    42 1   
    48     7    43 1   
    49     8    44 1   
    50     9    45 1   
    51    10    46 1   
    52    11    47 1   
    53    11    48 1   
    54    13    49 1   
    55    14    50 1   
    56    14    51 1   
    57    15    52 1   
    58    15    53 1   
    59    66    54 1   
    60    66    55 1   
    61    17    56 1   
    62    17    57 1   
    63    19    58 1   
    64    21    59 1   
    65    22    60 1   
    66    24    61 1   
    67    25    62 1   
    68    26    63 1   
    69    27    64 1   
    70    31    65 1   
@<TRIPOS>SUBSTRUCTURE
     1 91V         1 TEMP              0 ****  ****    0 ROOT
