@<TRIPOS>MOLECULE
molecule
   76    79     1     0     0
SMALL
bcc


@<TRIPOS>ATOM
      1 O3           0.0000     0.0000     0.0000 oh         1 91W      -0.597800
      2 C25          1.4280     0.0000     0.0000 c3         1 91W       0.189300
      3 C24          1.9450     0.0000     1.4420 c3         1 91W      -0.115400
      4 C23          1.4840    -1.2700     2.1580 c3         1 91W       0.152100
      5 O2           1.8420    -1.1960     3.5390 oh         1 91W      -0.610800
      6 C22          2.1540    -2.4950     1.5240 c3         1 91W      -0.036200
      7 C26          1.9390    -1.2500    -0.6910 ce         1 91W      -0.080200
      8 C27          2.4850    -1.2040    -1.9060 c2         1 91W      -0.206000
      9 C21          1.8020    -2.5220     0.0510 ce         1 91W      -0.083200
     10 C20          1.3860    -3.6520    -0.5570 cf         1 91W      -0.118000
     11 C19          1.0560    -3.6380    -1.9850 cf         1 91W      -0.161000
     12 C15          0.6460    -4.7550    -2.5850 c2         1 91W      -0.094400
     13 C2           0.2940    -4.8000    -4.0420 c3         1 91W      -0.034500
     14 C16          0.5050    -6.0760    -1.8420 c3         1 91W      -0.044200
     15 C17         -0.8650    -6.6990    -2.1010 c3         1 91W      -0.078400
     16 C18         -1.2080    -6.7200    -3.6000 c3         1 91W      -0.066400
     17 C1          -1.1810    -5.2900    -4.0990 c3         1 91W      -0.062000
     18 C           -2.0180    -4.4130    -3.1660 c3         1 91W      -0.093100
     19 C5          -1.5880    -5.0220    -5.5400 c3         1 91W      -0.049700
     20 C4          -0.7490    -3.7890    -5.9710 c3         1 91W      -0.079400
     21 C3           0.1910    -3.4570    -4.7670 c3         1 91W      -0.082400
     22 C6          -3.0820    -4.7020    -5.6200 c3         1 91W      -0.068700
     23 C14         -3.8870    -5.8900    -5.0870 c3         1 91W      -0.097100
     24 C7          -3.4700    -4.4350    -7.0740 c3         1 91W       0.138100
     25 C13         -4.9740    -4.1110    -7.1650 c3         1 91W      -0.117400
     26 C12         -5.0210    -2.7020    -7.8040 c3         1 91W      -0.104400
     27 C8          -3.6340    -2.6100    -8.4910 c3         1 91W       0.140100
     28 O           -2.7560    -3.2890    -7.5680 os         1 91W      -0.412600
     29 C9          -3.2140    -1.1490    -8.6610 c3         1 91W       0.155800
     30 C11         -1.7970    -1.0900    -9.2380 c3         1 91W      -0.117100
     31 O1          -4.1190    -0.4920    -9.5510 oh         1 91W      -0.606800
     32 C10         -3.2400    -0.4490    -7.3000 c3         1 91W      -0.117100
     33 H1          -0.3140     0.8800    -0.1290 ho         1 91W       0.400000
     34 H2           1.7980     0.8770    -0.5180 h1         1 91W       0.036700
     35 H3           1.5550     0.8660     1.9630 hc         1 91W       0.054700
     36 H4           3.0280     0.0350     1.4350 hc         1 91W       0.054700
     37 H5           0.4090    -1.3630     2.0650 h1         1 91W       0.052700
     38 H6           1.0710    -1.0300     4.0550 ho         1 91W       0.401000
     39 H7           1.7890    -3.3960     2.0020 hc         1 91W       0.058700
     40 H8           3.2280    -2.4230     1.6410 hc         1 91W       0.058700
     41 H9           2.5730    -0.2570    -2.4250 ha         1 91W       0.122500
     42 H10          2.8410    -2.1130    -2.3750 ha         1 91W       0.122500
     43 H11          1.2970    -4.5700     0.0100 ha         1 91W       0.133000
     44 H12          1.1310    -2.7160    -2.5490 ha         1 91W       0.148000
     45 H13          0.9450    -5.4810    -4.5770 hc         1 91W       0.065700
     46 H14          1.2750    -6.7580    -2.1810 hc         1 91W       0.048700
     47 H15          0.6200    -5.9000    -0.7790 hc         1 91W       0.048700
     48 H16         -0.8660    -7.7150    -1.7250 hc         1 91W       0.042700
     49 H17         -1.6180    -6.1220    -1.5760 hc         1 91W       0.042700
     50 H18         -2.1970    -7.1390    -3.7420 hc         1 91W       0.044200
     51 H19         -0.4730    -7.3090    -4.1350 hc         1 91W       0.044200
     52 H20         -1.4770    -4.2520    -2.2410 hc         1 91W       0.040700
     53 H21         -2.2100    -3.4590    -3.6420 hc         1 91W       0.040700
     54 H22         -2.9580    -4.9060    -2.9530 hc         1 91W       0.040700
     55 H23         -1.3460    -5.8750    -6.1620 hc         1 91W       0.051700
     56 H24         -0.1590    -4.0310    -6.8470 hc         1 91W       0.058200
     57 H25         -1.4020    -2.9490    -6.1750 hc         1 91W       0.058200
     58 H26          1.1640    -3.1370    -5.1190 hc         1 91W       0.046200
     59 H27         -0.2590    -2.7090    -4.1250 hc         1 91W       0.046200
     60 H28         -3.2960    -3.8240    -5.0220 hc         1 91W       0.068700
     61 H29         -3.3150    -6.8010    -5.2170 hc         1 91W       0.039033
     62 H30         -4.0950    -5.7420    -4.0340 hc         1 91W       0.039033
     63 H31         -4.8190    -5.9680    -5.6320 hc         1 91W       0.039033
     64 H32         -3.2430    -5.3000    -7.6860 h1         1 91W       0.047700
     65 H33         -5.4770    -4.8310    -7.8000 hc         1 91W       0.053200
     66 H34         -5.4170    -4.0920    -6.1770 hc         1 91W       0.053200
     67 H35         -5.1250    -1.9380    -7.0430 hc         1 91W       0.061700
     68 H36         -5.8170    -2.6390    -8.5360 hc         1 91W       0.061700
     69 H37         -3.6500    -3.1220    -9.4460 h1         1 91W       0.056700
     70 H38         -1.7050    -1.8090   -10.0430 hc         1 91W       0.045200
     71 H39         -1.6040    -0.0940    -9.6190 hc         1 91W       0.045200
     72 H40         -1.0800    -1.3240    -8.4610 hc         1 91W       0.045200
     73 H41         -3.6920     0.2530    -9.9400 ho         1 91W       0.407000
     74 H42         -2.8840    -1.1310    -6.5370 hc         1 91W       0.045200
     75 H43         -2.6000     0.4240    -7.3310 hc         1 91W       0.045200
     76 H44         -4.2540    -0.1460    -7.0690 hc         1 91W       0.045200
@<TRIPOS>BOND
     1    32    29 1
     2    30    29 1
     3    29    31 1
     4    29    27 1
     5    27    28 1
     6    27    26 1
     7    28    24 1
     8    26    25 1
     9    24    25 1
    10    24    22 1
    11    18    17 1
    12     8     7 2
    13    22    23 1
    14    22    19 1
    15    15    16 1
    16    15    14 1
    17    16    17 1
    18     1     2 1
    19     3     2 1
    20     3     4 1
    21    17    19 1
    22    17    13 1
    23     7     9 1
    24     7     2 1
    25     6     9 1
    26     6     4 1
    27     9    10 2
    28    19    20 1
    29     4     5 1
    30    10    11 1
    31    14    12 1
    32    11    12 2
    33    12    13 1
    34    20    21 1
    35    13    21 1
    36     1    33 1
    37     2    34 1
    38     3    35 1
    39     3    36 1
    40     4    37 1
    41     5    38 1
    42     6    39 1
    43     6    40 1
    44     8    41 1
    45     8    42 1
    46    10    43 1
    47    11    44 1
    48    13    45 1
    49    14    46 1
    50    14    47 1
    51    15    48 1
    52    15    49 1
    53    16    50 1
    54    16    51 1
    55    18    52 1
    56    18    53 1
    57    18    54 1
    58    19    55 1
    59    20    56 1
    60    20    57 1
    61    21    58 1
    62    21    59 1
    63    22    60 1
    64    23    61 1
    65    23    62 1
    66    23    63 1
    67    24    64 1
    68    25    65 1
    69    25    66 1
    70    26    67 1
    71    26    68 1
    72    27    69 1
    73    30    70 1
    74    30    71 1
    75    30    72 1
    76    31    73 1
    77    32    74 1
    78    32    75 1
    79    32    76 1
@<TRIPOS>SUBSTRUCTURE
     1 91W         1 TEMP              0 ****  ****    0 ROOT
