@<TRIPOS>MOLECULE
molecule
   30    33     1     0     0
SMALL
bcc


@<TRIPOS>ATOM
      1 C15          0.0000     0.0000     0.0000 ca         1 91X      -0.244500
      2 O17         -1.2460     1.3390    -1.7870 o          1 91X      -0.601300
      3 C19          0.2470    -0.4820    -2.7820 ca         1 91X      -0.244500
      4 C21          0.6500    -1.2710    -5.0090 ca         1 91X      -0.112000
      5 C22          2.0160    -1.2340    -4.7820 ca         1 91X      -0.092000
      6 C01          2.5030    -0.8220    -3.5610 ca         1 91X      -0.082000
      7 C02          1.6200    -0.4380    -2.5440 ca         1 91X      -0.088600
      8 C03          2.1650    -0.0010    -1.2520 c          1 91X       0.564300
      9 C05          1.3960     0.0000     0.0000 ca         1 91X      -0.069600
     10 C06          2.0860     0.0000     1.2210 ca         1 91X      -0.083000
     11 C07          1.3940     0.0030     2.4090 ca         1 91X      -0.089000
     12 C08         -0.0030     0.0050     2.4040 ca         1 91X      -0.116500
     13 C09         -0.7480     0.0080     3.6820 cc         1 91X       0.398000
     14 C14         -0.6920     0.0040     1.1910 ca         1 91X       0.011000
     15 C20         -0.2290    -0.8950    -4.0090 ca         1 91X      -0.032000
     16 N10         -0.2210     0.0150     4.9300 na         1 91X      -0.118400
     17 N11         -1.2100     0.0150     5.7580 nc         1 91X      -0.214800
     18 N12         -2.3130     0.0090     5.0960 nd         1 91X      -0.024000
     19 N13         -2.0590     0.0090     3.8330 nd         1 91X      -0.365000
     20 O04          3.3160     0.3890    -1.2170 o          1 91X      -0.495100
     21 O18         -1.8390    -1.0620    -1.4230 o          1 91X      -0.601300
     22 S16         -0.8890    -0.0110    -1.5210 sy         1 91X       1.287600
     23 H1           0.2700    -1.5960    -5.9700 ha         1 91X       0.145000
     24 H2           2.7020    -1.5290    -5.5670 ha         1 91X       0.143000
     25 H3           3.5720    -0.7940    -3.3880 ha         1 91X       0.157000
     26 H4           3.1690    -0.0010     1.2280 ha         1 91X       0.163000
     27 H5           1.9330     0.0040     3.3490 ha         1 91X       0.131000
     28 H6          -1.7750     0.0050     1.1860 ha         1 91X       0.177000
     29 H7          -1.2970    -0.9250    -4.1910 ha         1 91X       0.151000
     30 H8           0.7520     0.0190     5.1650 hn         1 91X       0.344700
@<TRIPOS>BOND
     1    21    22 2   
     2     4    15 ar  
     3     4     5 ar  
     4    15     3 ar  
     5     5     6 ar  
     6     3    22 1   
     7     3     7 ar  
     8    22     1 1   
     9    22     2 2   
    10     6     7 ar  
    11     7     8 1   
    12     1    14 ar  
    13     1     9 ar  
    14    14    12 ar  
    15     8     9 1   
    16     8    20 2   
    17     9    10 ar  
    18    16    17 1   
    19    16    13 1   
    20    17    18 2   
    21    12    13 1   
    22    12    11 ar  
    23    13    19 2   
    24    18    19 1   
    25    10    11 ar  
    26     4    23 1   
    27     5    24 1   
    28     6    25 1   
    29    10    26 1   
    30    11    27 1   
    31    14    28 1   
    32    15    29 1   
    33    16    30 1   
@<TRIPOS>SUBSTRUCTURE
     1 91X         1 TEMP              0 ****  ****    0 ROOT
