@<TRIPOS>MOLECULE
molecule
   51    54     1     0     0
SMALL
bcc


@<TRIPOS>ATOM
      1 N3           0.0000     0.0000     0.0000 ns         1 91Y      -0.548400
      2 C4           1.3880     0.0000     0.0000 ca         1 91Y       0.504900
      3 C6           3.3740    -0.0000     1.1460 ca         1 91Y       0.360900
      4 C7           4.0730    -0.0000    -0.0540 ca         1 91Y       0.236900
      5 N12          2.0380    -0.1330    -3.6560 ns         1 91Y      -0.549900
      6 C13          1.3130    -0.1380    -4.9290 c3         1 91Y       0.110700
      7 C15          1.8360    -0.1300    -7.3010 ca         1 91Y      -0.094300
      8 C17          1.6840     0.3560    -9.6440 ca         1 91Y      -0.126000
      9 C20          1.3130     1.1160    -7.0090 ca         1 91Y      -0.094300
     10 C21          1.2100     1.2890    -5.5080 c3         1 91Y      -0.047600
     11 C22         -2.1820    -0.1010     1.1610 c3         1 91Y      -0.140700
     12 C24         -4.2240    -0.2260     2.5970 c3         1 91Y      -0.080400
     13 C26         -4.2220    -1.2820     0.3320 c3         1 91Y      -0.080400
     14 O1          -0.0690    -0.1920     2.2080 o          1 91Y      -0.541100
     15 C2          -0.6750    -0.1010     1.1620 c          1 91Y       0.645100
     16 N5           2.0540     0.0000     1.1480 nb         1 91Y      -0.657000
     17 N8           3.4230    -0.0060    -1.2010 nb         1 91Y      -0.621000
     18 C9           2.0930    -0.0060    -1.2120 ca         1 91Y       0.181500
     19 O11          0.1520     0.0910    -2.5070 o          1 91Y      -0.643100
     20 C14          2.1210    -0.8790    -6.0170 c3         1 91Y      -0.047600
     21 C16          2.0200    -0.5070    -8.6200 ca         1 91Y      -0.111000
     22 C18          1.1600     1.6020    -9.3520 ca         1 91Y      -0.126000
     23 C19          0.9760     1.9800    -8.0370 ca         1 91Y      -0.111000
     24 C23         -2.6930    -0.2260     2.5980 c3         1 91Y      -0.068900
     25 C25         -4.7330    -1.4070     1.7690 c3         1 91Y      -0.082400
     26 C27         -2.6920    -1.2820     0.3330 c3         1 91Y      -0.068900
     27 H1          -0.5000     0.1100    -0.8600 hn         1 91Y       0.379500
     28 H2           3.9150     0.0020     2.0840 h4         1 91Y       0.038100
     29 H3           5.1560    -0.0000    -0.0470 h4         1 91Y       0.034100
     30 H4           3.0340    -0.2260    -3.6470 hn         1 91Y       0.339500
     31 H5           0.3300    -0.5780    -4.8180 h1         1 91Y       0.093700
     32 H6           1.8290     0.0570   -10.6750 ha         1 91Y       0.132000
     33 H7           0.2550     1.7310    -5.2470 hc         1 91Y       0.062700
     34 H8           2.0260     1.9010    -5.1450 hc         1 91Y       0.062700
     35 H9          -2.5470     0.8240     0.7300 hc         1 91Y       0.069700
     36 H10         -4.5840    -0.3170     3.6140 hc         1 91Y       0.042950
     37 H11         -4.5830     0.6990     2.1620 hc         1 91Y       0.042950
     38 H12         -4.5810    -0.3550    -0.0980 hc         1 91Y       0.042950
     39 H13         -4.5810    -2.1200    -0.2520 hc         1 91Y       0.042950
     40 H14          1.7630    -1.8980    -6.1040 hc         1 91Y       0.062700
     41 H15          3.1780    -0.8190    -5.7890 hc         1 91Y       0.062700
     42 H16          2.4310    -1.4830    -8.8500 ha         1 91Y       0.129500
     43 H17          0.8960     2.2800   -10.1540 ha         1 91Y       0.132000
     44 H18          0.5660     2.9560    -7.8090 ha         1 91Y       0.129500
     45 H19         -2.3340    -1.1530     3.0280 hc         1 91Y       0.053450
     46 H20         -2.3340     0.6120     3.1820 hc         1 91Y       0.053450
     47 H21         -5.8160    -1.4050     1.7660 hc         1 91Y       0.042700
     48 H22         -4.3700    -2.3320     2.2000 hc         1 91Y       0.042700
     49 H23         -2.3330    -2.2080     0.7670 hc         1 91Y       0.053450
     50 H24         -2.3320    -1.1910    -0.6850 hc         1 91Y       0.053450
     51 C10          1.3630    -0.0120    -2.4970 c          1 91Y       0.598600
@<TRIPOS>BOND
     1    25    12 1   
     2    25    13 1   
     3    12    24 1   
     4    13    26 1   
     5    24    11 1   
     6    14    15 2   
     7    26    11 1   
     8    11    15 1   
     9    15     1 1   
    10    16     3 ar  
    11    16     2 ar  
    12     3     4 ar  
    13     1     2 1   
    14     2    18 ar  
    15     4    17 ar  
    16    18    17 ar  
    17    18    51 1   
    18    51    19 2   
    19    51     5 1   
    20     5     6 1   
    21     6    20 1   
    22     6    10 1   
    23    20     7 1   
    24    10     9 1   
    25     7     9 ar  
    26     7    21 ar  
    27     9    23 ar  
    28    21     8 ar  
    29    23    22 ar  
    30     8    22 ar  
    31     1    27 1   
    32     3    28 1   
    33     4    29 1   
    34     5    30 1   
    35     6    31 1   
    36     8    32 1   
    37    10    33 1   
    38    10    34 1   
    39    11    35 1   
    40    12    36 1   
    41    12    37 1   
    42    13    38 1   
    43    13    39 1   
    44    20    40 1   
    45    20    41 1   
    46    21    42 1   
    47    22    43 1   
    48    23    44 1   
    49    24    45 1   
    50    24    46 1   
    51    25    47 1   
    52    25    48 1   
    53    26    49 1   
    54    26    50 1   
@<TRIPOS>SUBSTRUCTURE
     1 91Y         1 TEMP              0 ****  ****    0 ROOT
