@<TRIPOS>MOLECULE
920
   59    64     1     0     0
SMALL
bcc


@<TRIPOS>ATOM
      1 F31          0.0000     0.0000     0.0000 f          1 920      -0.124900
      2 C6           1.3510     0.0000     0.0000 ca         1 920       0.156900
      3 C1           2.0420     0.0000     1.2030 ca         1 920      -0.212000
      4 C5           2.0370    -0.0070    -1.1980 ca         1 920      -0.156000
      5 C4           3.4330    -0.0070    -1.2000 cp         1 920       0.021000
      6 C9           4.4470    -0.0120    -2.2650 cp         1 920      -0.331600
      7 C10          4.4010    -0.0200    -3.6650 ca         1 920       0.581200
      8 N22          3.1890    -0.0220    -4.3310 nh         1 920      -0.481300
      9 C26          3.1280    -1.1300    -5.3200 c3         1 920       0.146800
     10 C25          2.0080    -0.6800    -6.2870 cy         1 920      -0.078700
     11 C28          2.4020    -0.7650    -7.7670 cy         1 920      -0.119500
     12 N29          3.2760    -1.9030    -8.0770 nz         1 920       0.081400
     13 C27          3.1600     0.5570    -7.5790 cy         1 920      -0.033400
     14 C24          2.2330     0.8510    -6.3870 cy         1 920      -0.066000
     15 C30          1.0010     1.7070    -6.6890 c3         1 920       0.037900
     16 C23          3.0100     1.2230    -5.1090 c3         1 920       0.153800
     17 N11          5.5480    -0.0230    -4.3390 nb         1 920      -0.741000
     18 C12          6.7110    -0.0190    -3.7030 ca         1 920       0.860300
     19 N13          6.7960    -0.0140    -2.3840 nb         1 920      -0.699000
     20 C8           5.6980    -0.0090    -1.6290 ca         1 920       0.350800
     21 N7           5.4950    -0.0020    -0.2710 na         1 920       0.278000
     22 C3           4.1350    -0.0010     0.0130 ca         1 920      -0.284200
     23 C2           3.4270    -0.0000     1.2160 ca         1 920       0.109600
     24 N32          4.1150     0.0010     2.4340 nu         1 920      -0.416600
     25 C33          3.3710     0.0030     3.6960 c3         1 920       0.199100
     26 O14          7.8530    -0.0230    -4.4300 os         1 920      -0.313400
     27 C15          9.0330    -0.1310    -3.7660 ca         1 920      -0.151500
     28 C20          9.4500    -1.3530    -3.2480 ca         1 920       0.442200
     29 N19         10.6060    -1.4170    -2.6070 nb         1 920      -0.603500
     30 C18         11.3560    -0.3440    -2.4580 ca         1 920       0.604300
     31 C21         12.6660    -0.4640    -1.7200 c3         1 920      -0.033400
     32 N17         10.9950     0.8300    -2.9340 nb         1 920      -0.603500
     33 C16          9.8570     0.9750    -3.5910 ca         1 920       0.442200
     34 H1           1.4950    -0.0000     2.1380 ha         1 920       0.142000
     35 H2           1.4940    -0.0670    -2.1330 ha         1 920       0.127000
     36 H3           4.0710    -1.2220    -5.8460 h1         1 920       0.024200
     37 H4           2.8610    -2.0600    -4.8340 h1         1 920       0.024200
     38 H5           0.9940    -0.9720    -6.0430 hc         1 920       0.087700
     39 H6           1.5510    -0.6670    -8.4310 hx         1 920       0.114700
     40 H7           3.2950    -2.0490    -9.0670 hn         1 920       0.226133
     41 H8           2.9250    -2.7250    -7.6260 hn         1 920       0.226133
     42 H10          3.0190     1.2460    -8.4040 hc         1 920       0.061200
     43 H11          4.1930     0.4140    -7.2860 hc         1 920       0.061200
     44 H12          0.2590     1.5580    -5.9140 hc         1 920       0.021033
     45 H13          1.2850     2.7520    -6.7200 hc         1 920       0.021033
     46 H14          0.5860     1.4180    -7.6470 hc         1 920       0.021033
     47 H15          2.4420     1.9410    -4.5290 h1         1 920       0.046200
     48 H16          3.9760     1.6350    -5.3730 h1         1 920       0.046200
     49 H17          6.2230     0.0010     0.4160 hn         1 920       0.127700
     50 H18          5.1160    -0.0010     2.4430 hn         1 920       0.285800
     51 H19          2.7470     0.8880     3.7460 h1         1 920       0.012700
     52 H20          2.7480    -0.8810     3.7490 h1         1 920       0.012700
     53 H21          4.0670     0.0050     4.5250 h1         1 920       0.012700
     54 H22          8.8380    -2.2380    -3.3680 h4         1 920      -0.009400
     55 H23         12.4920    -0.9020    -0.7450 hc         1 920       0.024700
     56 H24         13.1050     0.5190    -1.6010 hc         1 920       0.024700
     57 H25         13.3410    -1.0960    -2.2840 hc         1 920       0.024700
     58 H26          9.5660     1.9440    -3.9800 h4         1 920      -0.009400
     59 H293         4.2040    -1.7070    -7.7590 hn         1 920       0.226133
@<TRIPOS>BOND
     1     1     2 1   
     2     2     3 ar  
     3     2     4 ar  
     4     3    23 ar  
     5     3    34 1   
     6     4     5 ar  
     7     4    35 1   
     8     5     6 1   
     9     5    22 ar  
    10     6     7 ar  
    11     6    20 ar  
    12     7     8 1   
    13     7    17 ar  
    14     8     9 1   
    15     8    16 1   
    16     9    10 1   
    17     9    36 1   
    18     9    37 1   
    19    10    11 1   
    20    10    14 1   
    21    10    38 1   
    22    11    12 1   
    23    11    13 1   
    24    11    39 1   
    25    12    40 1   
    26    12    41 1   
    27    12    59 1   
    28    13    14 1   
    29    13    42 1   
    30    13    43 1   
    31    14    15 1   
    32    14    16 1   
    33    15    44 1   
    34    15    45 1   
    35    15    46 1   
    36    16    47 1   
    37    16    48 1   
    38    17    18 ar  
    39    18    19 ar  
    40    18    26 1   
    41    19    20 ar  
    42    20    21 1   
    43    21    22 1   
    44    21    49 1   
    45    22    23 ar  
    46    23    24 1   
    47    24    25 1   
    48    24    50 1   
    49    25    51 1   
    50    25    52 1   
    51    25    53 1   
    52    26    27 1   
    53    27    28 ar  
    54    27    33 ar  
    55    28    29 ar  
    56    28    54 1   
    57    29    30 ar  
    58    30    31 1   
    59    30    32 ar  
    60    31    55 1   
    61    31    56 1   
    62    31    57 1   
    63    32    33 ar  
    64    33    58 1   
@<TRIPOS>SUBSTRUCTURE
     1 920         1 TEMP              0 ****  ****    0 ROOT
