@<TRIPOS>MOLECULE
molecule
   70    73     1     0     0
SMALL
bcc


@<TRIPOS>ATOM
      1 C5           0.0000     0.0000     0.0000 c3         1 921      -0.095900
      2 C6           1.5300     0.0000     0.0000 c3         1 921      -0.070900
      3 C7           2.0410     0.0000     1.4420 c3         1 921      -0.030400
      4 C10          0.0010    -1.2490     2.1640 c3         1 921      -0.095900
      5 C13          5.6400     0.9970     2.0150 ca         1 921       0.420700
      6 C15          5.6390    -0.9950     0.8580 ca         1 921       0.420700
      7 C20         -4.6530    -1.5240     1.3140 c3         1 921       0.034200
      8 C21         -5.3560    -0.4370     0.5430 c2         1 921      -0.534200
      9 C22         -6.6210    -0.1830     0.7740 c2         1 921       0.084600
     10 C24         -7.3500    -0.9210     1.8680 c3         1 921      -0.106900
     11 C26         -6.0590    -3.5010    -0.1500 ca         1 921      -0.184000
     12 C28         -6.0890    -5.4540    -1.5350 ca         1 921      -0.165000
     13 N2          -1.9750    -1.2490     0.7230 n          1 921      -0.495800
     14 C3          -0.5090    -1.2490     0.7210 c3         1 921       0.128700
     15 C9           1.5310    -1.2490     2.1630 c3         1 921      -0.070900
     16 C11          3.5480    -0.0010     1.4410 ca         1 921      -0.043300
     17 C12          4.2580     1.0310     2.0370 ca         1 921      -0.252300
     18 N14          6.2810     0.0020     1.4340 nb         1 921      -0.694000
     19 C16          4.2570    -1.0310     0.8450 ca         1 921      -0.252300
     20 O18         -2.0700    -3.0270    -0.6050 o          1 921      -0.643100
     21 N19         -3.9660    -2.4190     0.3800 n          1 921      -0.340000
     22 C23         -7.3470     0.8470    -0.0530 c3         1 921      -0.106900
     23 C25         -4.6760    -3.4390    -0.2620 ca         1 921       0.099600
     24 C27         -6.7610    -4.5090    -0.7830 ca         1 921      -0.102000
     25 C29         -4.7060    -5.4010    -1.6460 ca         1 921       0.119100
     26 O30         -4.0480    -6.3300    -2.3860 os         1 921      -0.245200
     27 C31         -3.3820    -7.3150    -1.7280 ca         1 921       0.143100
     28 C32         -3.4810    -7.4180    -0.3470 ca         1 921      -0.179500
     29 C33         -2.8030    -8.4200     0.3200 ca         1 921      -0.096000
     30 C34         -2.0270    -9.3200    -0.3870 ca         1 921      -0.166000
     31 C35         -1.9260    -9.2200    -1.7630 ca         1 921      -0.096000
     32 C36         -2.6070    -8.2240    -2.4340 ca         1 921      -0.179500
     33 C37         -3.9990    -4.3910    -1.0120 ca         1 921      -0.188000
     34 H1          -0.3600    -0.0030    -1.0220 hc         1 921       0.049200
     35 H2          -0.3600     0.8840     0.5130 hc         1 921       0.049200
     36 H3           1.8890     0.8860    -0.5090 hc         1 921       0.051200
     37 H4           1.8890    -0.8860    -0.5090 hc         1 921       0.051200
     38 H5           1.6760     0.8830     1.9520 hc         1 921       0.057700
     39 H6          -0.3580    -2.1360     2.6720 hc         1 921       0.049200
     40 H7          -0.3590    -0.3640     2.6730 hc         1 921       0.049200
     41 H8           6.2030     1.7980     2.4780 h4         1 921       0.022600
     42 H9           6.2000    -1.7960     0.3930 h4         1 921       0.022600
     43 H10         -5.3790    -2.0880     1.8870 h1         1 921       0.066200
     44 H11         -3.9290    -1.0790     1.9860 h1         1 921       0.066200
     45 H12         -4.9660    -0.2880     1.5430 ha         1 921       0.309000
     46 H13         -8.2040    -0.3370     2.1900 hc         1 921       0.060533
     47 H14         -6.6820    -1.0760     2.7060 hc         1 921       0.060533
     48 H15         -7.6880    -1.8800     1.4930 hc         1 921       0.060533
     49 H16         -6.5880    -2.7610     0.4390 ha         1 921       0.128000
     50 H17         -6.6410    -6.2440    -2.0300 ha         1 921       0.141000
     51 H18         -2.0760     0.7290     1.3950 h1         1 921       0.058367
     52 H19         -3.5980     0.0700     0.7830 h1         1 921       0.058367
     53 H20         -2.9870    -0.4370     2.3640 h1         1 921       0.058367
     54 H21         -0.1440    -2.1320     0.2110 h1         1 921       0.097700
     55 H22          1.8910    -1.2470     3.1840 hc         1 921       0.051200
     56 H23          1.8910    -2.1330     1.6500 hc         1 921       0.051200
     57 H24          3.7370     1.8510     2.5160 ha         1 921       0.139000
     58 H25          3.7350    -1.8530     0.3700 ha         1 921       0.139000
     59 H26         -7.3710     1.7880     0.4820 hc         1 921       0.060533
     60 H27         -8.3600     0.5110    -0.2390 hc         1 921       0.060533
     61 H28         -6.8310     0.9800    -0.9960 hc         1 921       0.060533
     62 H29         -7.8400    -4.5540    -0.6960 ha         1 921       0.130000
     63 H30         -4.0890    -6.7130     0.2060 ha         1 921       0.143000
     64 H31         -2.8800    -8.5000     1.3980 ha         1 921       0.130000
     65 H32         -1.4940   -10.1040     0.1380 ha         1 921       0.127000
     66 H33         -1.3190    -9.9270    -2.3140 ha         1 921       0.130000
     67 H34         -2.5280    -8.1460    -3.5120 ha         1 921       0.143000
     68 H35         -2.9210    -4.3460    -1.0990 ha         1 921       0.223000
     69 C17         -2.6490    -2.2590     0.1390 c          1 921       0.802100
     70 C1          -2.7070    -0.1500     1.3570 c3         1 921       0.030300
@<TRIPOS>BOND
     1     4    15 1   
     2     4    14 1   
     3    31    30 ar  
     4    31    32 ar  
     5     7    21 1   
     6     7     8 1   
     7    15     3 1   
     8    30    29 ar  
     9    21    69 1   
    10    21    23 1   
    11    70    13 1   
    12    69    13 1   
    13    69    20 2   
    14    32    27 ar  
    15    13    14 1   
    16    14     1 1   
    17     8     9 2   
    18    33    23 ar  
    19    33    25 ar  
    20    29    28 ar  
    21     3    16 1   
    22     3     2 1   
    23    23    11 ar  
    24    27    28 ar  
    25    27    26 1   
    26    22     9 1   
    27     9    10 1   
    28    19    16 ar  
    29    19     6 ar  
    30    16    17 ar  
    31     1     2 1   
    32    26    25 1   
    33    25    12 ar  
    34     6    18 ar  
    35    17     5 ar  
    36    11    24 ar  
    37    18     5 ar  
    38    12    24 ar  
    39     1    34 1   
    40     1    35 1   
    41     2    36 1   
    42     2    37 1   
    43     3    38 1   
    44     4    39 1   
    45     4    40 1   
    46     5    41 1   
    47     6    42 1   
    48     7    43 1   
    49     7    44 1   
    50     8    45 1   
    51    10    46 1   
    52    10    47 1   
    53    10    48 1   
    54    11    49 1   
    55    12    50 1   
    56    70    51 1   
    57    70    52 1   
    58    70    53 1   
    59    14    54 1   
    60    15    55 1   
    61    15    56 1   
    62    17    57 1   
    63    19    58 1   
    64    22    59 1   
    65    22    60 1   
    66    22    61 1   
    67    24    62 1   
    68    28    63 1   
    69    29    64 1   
    70    30    65 1   
    71    31    66 1   
    72    32    67 1   
    73    33    68 1   
@<TRIPOS>SUBSTRUCTURE
     1 921         1 TEMP              0 ****  ****    0 ROOT
