@<TRIPOS>MOLECULE
molecule
   59    60     1     0     0
SMALL
bcc


@<TRIPOS>ATOM
      1 C37          0.0000     0.0000     0.0000 ca         1 922      -0.103000
      2 C38          1.3820     0.0000     0.0000 ca         1 922      -0.139500
      3 C39          2.0730     0.0000     1.1980 ca         1 922      -0.132000
      4 C40          1.3810     0.0000     2.3940 ca         1 922      -0.139500
      5 C41         -0.0010     0.0020     2.3940 ca         1 922      -0.103000
      6 C36         -0.6920    -0.0000     1.1970 ca         1 922      -0.082300
      7 C33         -2.1990     0.0010     1.1960 c3         1 922       0.215700
      8 O32         -2.6830    -1.3680     1.1960 os         1 922      -0.444900
      9 C30         -4.0180    -1.5430     1.1950 c          1 922       0.747100
     10 O31         -4.7580    -0.5790     1.1950 o          1 922      -0.636000
     11 N29         -4.5330    -2.7890     1.1950 ns         1 922      -0.510900
     12 C25         -5.9870    -2.9800     1.1940 c3         1 922      -0.030500
     13 C26         -6.3580    -4.0580     0.1730 c3         1 922      -0.078700
     14 C28         -5.8140    -3.6680    -1.2020 c3         1 922      -0.091600
     15 C27         -7.8810    -4.1880     0.1010 c3         1 922      -0.091600
     16 P24         -6.5320    -3.5010     2.8540 p5         1 922       1.164600
     17 O34         -5.9010    -4.9430     3.1970 o          1 922      -0.807000
     18 O35         -6.0760    -2.5120     3.8560 o          1 922      -0.807000
     19 O23         -8.1380    -3.5970     2.8850 os         1 922      -0.587200
     20 C1          -8.8780    -3.8800     4.0750 c3         1 922       0.155400
     21 C2          -9.6780    -5.1420     3.8810 c          1 922       0.890600
     22 O14        -10.4540    -5.6040     4.8750 o          1 922      -0.828800
     23 O13         -9.6190    -5.7390     2.8310 o          1 922      -0.828800
     24 C3          -9.8110    -2.7350     4.3710 ca         1 922       0.041700
     25 C8          -9.9880    -2.3070     5.6730 ca         1 922      -0.086000
     26 C4         -10.4850    -2.1090     3.3380 ca         1 922      -0.075000
     27 C5         -11.3420    -1.0570     3.6050 ca         1 922      -0.113000
     28 C6         -11.5270    -0.6280     4.9040 ca         1 922      -0.256000
     29 C7         -10.8480    -1.2510     5.9440 ca         1 922       0.028600
     30 N9         -11.0310    -0.8170     7.2610 nu         1 922      -0.670600
     31 C10        -12.2880    -0.4750     7.7050 c2         1 922       0.713100
     32 N12        -12.4410     0.0420     8.8910 n2         1 922      -0.855100
     33 N11        -13.3820    -0.6800     6.8970 nz         1 922      -0.806600
     34 H37         -0.5410    -0.0010    -0.9380 ha         1 922       0.137500
     35 H38          1.9240    -0.0000    -0.9380 ha         1 922       0.122500
     36 H39          3.1570    -0.0010     1.1990 ha         1 922       0.118000
     37 H40          1.9220     0.0010     3.3330 ha         1 922       0.122500
     38 H41         -0.5430     0.0020     3.3320 ha         1 922       0.137500
     39 H331        -2.5590     0.5120     0.3110 h1         1 922       0.051200
     40 H332        -2.5600     0.5120     2.0800 h1         1 922       0.051200
     41 HN29        -3.9250    -3.5810     1.2520 hn         1 922       0.329500
     42 H25         -6.4730    -2.0490     0.9290 h1         1 922       0.080700
     43 H26         -5.9290    -5.0050     0.4760 hc         1 922       0.077700
     44 H281        -4.7390    -3.8030    -1.2160 hc         1 922       0.031700
     45 H282        -6.2670    -4.2950    -1.9600 hc         1 922       0.031700
     46 H283        -6.0500    -2.6300    -1.4030 hc         1 922       0.031700
     47 H271        -8.2100    -4.9630     0.7820 hc         1 922       0.031700
     48 H272        -8.3380    -3.2450     0.3780 hc         1 922       0.031700
     49 H273        -8.1730    -4.4470    -0.9100 hc         1 922       0.031700
     50 H1          -8.1920    -4.0110     4.9040 h1         1 922       0.071700
     51 H8          -9.4570    -2.7960     6.4810 ha         1 922       0.164000
     52 H4         -10.3410    -2.4430     2.3180 ha         1 922       0.180000
     53 H5         -11.8700    -0.5700     2.7940 ha         1 922       0.124000
     54 H6         -12.1990     0.1970     5.1130 ha         1 922       0.064000
     55 HN9        -10.2420    -0.7190     7.8690 hn         1 922       0.508800
     56 HN12       -13.3550     0.2910     9.2160 hn         1 922       0.413400
     57 H111       -13.5130     0.1160     6.3050 hn         1 922       0.467467
     58 H112       -13.2340    -1.4950     6.3350 hn         1 922       0.467467
     59 H113       -14.1950    -0.8110     7.4650 hn         1 922       0.467467
@<TRIPOS>BOND
     1     1     6 ar
     2     1     2 ar
     3     1    34 1
     4     2     3 ar
     5     2    35 1
     6     3     4 ar
     7     3    36 1
     8     4     5 ar
     9     4    37 1
    10     5     6 ar
    11     5    38 1
    12     6     7 1
    13     7     8 1
    14     7    39 1
    15     7    40 1
    16     8     9 1
    17     9    11 1
    18     9    10 2
    19    11    12 1
    20    11    41 1
    21    12    13 1
    22    12    16 1
    23    12    42 1
    24    13    15 1
    25    13    14 1
    26    13    43 1
    27    14    44 1
    28    14    45 1
    29    14    46 1
    30    15    47 1
    31    15    48 1
    32    15    49 1
    33    16    17 1
    34    16    19 1
    35    16    18 1
    36    19    20 1
    37    20    24 1
    38    20    21 1
    39    20    50 1
    40    21    22 1
    41    21    23 1
    42    24    26 ar
    43    24    25 ar
    44    25    29 ar
    45    25    51 1
    46    26    27 ar
    47    26    52 1
    48    27    28 ar
    49    27    53 1
    50    28    29 ar
    51    28    54 1
    52    29    30 1
    53    30    31 1
    54    30    55 1
    55    31    33 1
    56    31    32 2
    57    32    56 1
    58    33    57 1
    59    33    58 1
    60    59    33 1
@<TRIPOS>SUBSTRUCTURE
     1 922         1 TEMP              0 ****  ****    0 ROOT
