@<TRIPOS>MOLECULE
923
   62    66     1     0     0
SMALL
bcc


@<TRIPOS>ATOM
      1 C1         -0.4030   -0.3550    0.0920 ca        1 923     -0.042000
      2 C2          0.9750   -0.0900   -0.0690 ca        1 923     -0.110800
      3 C3          1.7830    0.1300    1.0620 ca        1 923     -0.076000
      4 C4          1.2680    0.0870    2.3590 ca        1 923     -0.164000
      5 C5         -0.0880   -0.1800    2.4900 ca        1 923      0.143100
      6 C6         -0.9270   -0.4000    1.3670 ca        1 923     -0.158300
      7 C7         -2.3160   -0.6350    1.8580 c3        1 923     -0.042100
      8 C8         -2.1610   -0.5890    3.3960 c3        1 923      0.145100
      9 O9         -0.7640   -0.2720    3.6930 os        1 923     -0.313900
     10 C10         1.6020   -0.0270   -1.3690 ce        1 923     -0.030200
     11 C11         1.0690   -0.2960   -2.5730 cd        1 923      0.035100
     12 O12        -0.2600   -0.7120   -2.7880 os        1 923     -0.343200
     13 C13        -0.4410   -0.9060   -4.1780 c         1 923      0.737800
     14 C14         0.8200   -0.5750   -4.8750 cc        1 923     -0.235400
     15 C15         1.7230   -0.2290   -3.8970 cd        1 923      0.167100
     16 C16         0.9900   -0.6390   -6.3040 ca        1 923     -0.057800
     17 C17         0.2830   -1.6170   -7.0420 ca        1 923     -0.058000
     18 C18         0.4710   -1.6810   -8.4060 ca        1 923     -0.140300
     19 C19         1.3550   -0.7720   -9.0440 ca        1 923      0.129100
     20 C20         2.0450    0.2060   -8.3440 ca        1 923     -0.151000
     21 C21         1.8420    0.2600   -6.9600 ca        1 923     -0.114000
     22 C22        -0.0970   -2.5900   -9.4430 c3        1 923     -0.044100
     23 C23         0.5220   -2.0600  -10.7570 c3        1 923      0.145100
     24 O24         1.4270   -0.9630  -10.4140 os        1 923     -0.314900
     25 C25         1.2970   -3.1180  -11.5630 c3        1 923      0.142800
     26 C26         2.1400   -2.4470  -12.6400 c3        1 923     -0.123600
     27 O27         2.1280   -3.8190  -10.6400 oh        1 923     -0.591800
     28 C28         0.3070   -4.0890  -12.1980 c3        1 923     -0.123600
     29 C29        -3.0690    0.4380    4.0940 c3        1 923      0.142800
     30 O30        -2.9690    1.6540    3.3550 oh        1 923     -0.589800
     31 C31        -4.5110   -0.0620    4.0610 c3        1 923     -0.123600
     32 C32        -2.6190    0.6480    5.5340 c3        1 923     -0.123600
     33 O33        -1.5520   -1.3000   -4.5000 o         1 923     -0.556500
     34 O34         3.0240    0.1280   -3.9750 oh        1 923     -0.462100
     35 H1         -1.0490   -0.5200   -0.7850 ha        1 923      0.167000
     36 H3          2.8560    0.3410    0.9260 ha        1 923      0.132000
     37 H4          1.9040    0.2590    3.2360 ha        1 923      0.151000
     38 H7         -2.7120   -1.6270    1.5300 hc        1 923      0.076200
     39 H7A        -3.0110    0.1670    1.5030 hc        1 923      0.076200
     40 H8         -2.3360   -1.5960    3.8610 h1        1 923      0.067700
     41 H10         2.6680    0.2810   -1.3740 ha        1 923      0.149000
     42 H17        -0.4100   -2.2970   -6.5230 ha        1 923      0.158000
     43 H20         2.7140    0.9110   -8.8530 ha        1 923      0.151000
     44 H21         2.3460    1.0540   -6.3860 ha        1 923      0.127000
     45 H22         0.2050   -3.6520   -9.2590 hc        1 923      0.076700
     46 H22A       -1.2120   -2.5340   -9.4800 hc        1 923      0.076700
     47 H23        -0.2550   -1.5990  -11.4240 h1        1 923      0.068700
     48 H26         1.4910   -1.8270  -13.3010 hc        1 923      0.048033
     49 H26A        2.6600   -3.2170  -13.2580 hc        1 923      0.048033
     50 H26B        2.9040   -1.7860  -12.1620 hc        1 923      0.048033
     51 HO27        2.7160   -4.3770  -11.1640 ho        1 923      0.403000
     52 H28        -0.3230   -4.5650  -11.4090 hc        1 923      0.048033
     53 H28A        0.8590   -4.8910  -12.7440 hc        1 923      0.048033
     54 H28B       -0.3530   -3.5520  -12.9190 hc        1 923      0.048033
     55 HO30       -3.4210    2.3310    3.8720 ho        1 923      0.403000
     56 H31        -4.8320   -0.2320    3.0050 hc        1 923      0.047867
     57 H31A       -5.1860    0.6980    4.5210 hc        1 923      0.047867
     58 H31B       -4.6010   -1.0170    4.6300 hc        1 923      0.047867
     59 H32        -2.6140   -0.3260    6.0780 hc        1 923      0.047867
     60 H32A       -1.5860    1.0730    5.5470 hc        1 923      0.047867
     61 H32B       -3.3090    1.3530    6.0560 hc        1 923      0.047867
     62 HO34        3.3190   -0.0230   -4.8910 ho        1 923      0.446000
@<TRIPOS>BOND
     1    1    2 ar  
     2    1    6 ar  
     3    1   35 1   
     4    2    3 ar  
     5    2   10 1   
     6    3    4 ar  
     7    3   36 1   
     8    4    5 ar  
     9    4   37 1   
    10    5    6 ar  
    11    5    9 1   
    12    6    7 1   
    13    7    8 1   
    14    7   38 1   
    15    7   39 1   
    16    8    9 1   
    17    8   29 1   
    18    8   40 1   
    19   10   11 2   
    20   10   41 1   
    21   11   12 1   
    22   11   15 1   
    23   12   13 1   
    24   13   14 1   
    25   13   33 2   
    26   14   15 2   
    27   14   16 1   
    28   15   34 1   
    29   16   17 ar  
    30   16   21 ar  
    31   17   18 ar  
    32   17   42 1   
    33   18   19 ar  
    34   18   22 1   
    35   19   20 ar  
    36   19   24 1   
    37   20   21 ar  
    38   20   43 1   
    39   21   44 1   
    40   22   23 1   
    41   22   45 1   
    42   22   46 1   
    43   23   24 1   
    44   23   25 1   
    45   23   47 1   
    46   25   26 1   
    47   25   27 1   
    48   25   28 1   
    49   26   48 1   
    50   26   49 1   
    51   26   50 1   
    52   27   51 1   
    53   28   52 1   
    54   28   53 1   
    55   28   54 1   
    56   29   30 1   
    57   29   31 1   
    58   29   32 1   
    59   30   55 1   
    60   31   56 1   
    61   31   57 1   
    62   31   58 1   
    63   32   59 1   
    64   32   60 1   
    65   32   61 1   
    66   34   62 1   
@<TRIPOS>SUBSTRUCTURE
     1 923         1 TEMP              0 ****  ****    0 ROOT
