@<TRIPOS>MOLECULE
molecule
   62    66     1     0     0
SMALL
bcc


@<TRIPOS>ATOM
      1 C1           0.0000     0.0000     0.0000 ca         1 923      -0.048000
      2 C2           1.4020     0.0000     0.0000 ca         1 923      -0.123800
      3 C3           2.0900     0.0000     1.2210 ca         1 923      -0.072000
      4 C4           1.3940     0.0050     2.4050 ca         1 923      -0.158000
      5 C5          -0.0030     0.0080     2.4060 ca         1 923       0.149100
      6 C6          -0.6820     0.0010     1.1910 ca         1 923      -0.175300
      7 C7          -2.1640    -0.0160     1.5120 c3         1 923      -0.055100
      8 C8          -2.1640    -0.4110     3.0080 c3         1 923       0.154100
      9 O9          -0.8700     0.0310     3.4530 os         1 923      -0.300900
     10 C10          2.1420    -0.0010    -1.2680 ce         1 923      -0.029200
     11 C11          1.4740    -0.1280    -2.4450 cd         1 923       0.008100
     12 O12          0.1270    -0.1610    -2.5930 os         1 923      -0.300200
     13 C13         -0.1790    -0.2950    -3.8980 c          1 923       0.732800
     14 C14          1.0240    -0.3540    -4.6390 cc         1 923      -0.190400
     15 C15          2.0660    -0.2440    -3.7260 cd         1 923       0.128100
     16 C16          1.1490    -0.4980    -6.1080 ca         1 923      -0.061800
     17 C17          0.7140    -1.6650    -6.7390 ca         1 923      -0.053000
     18 C18          0.8340    -1.7920    -8.1030 ca         1 923      -0.172300
     19 C19          1.3910    -0.7730    -8.8690 ca         1 923       0.137100
     20 C20          1.8200     0.3920    -8.2370 ca         1 923      -0.152000
     21 C21          1.6960     0.5320    -6.8720 ca         1 923      -0.068000
     22 C22          0.4450    -2.9030    -9.0590 c3         1 923      -0.056100
     23 C23          0.5030    -2.1850   -10.4280 c3         1 923       0.156100
     24 O24          1.4320    -1.1150   -10.1870 os         1 923      -0.301900
     25 C25          1.0290    -3.1270   -11.5130 c3         1 923       0.151800
     26 C26          1.0740    -2.3880   -12.8510 c3         1 923      -0.121600
     27 O27          2.3440    -3.5650   -11.1660 oh         1 923      -0.591800
     28 C28          0.1020    -4.3380   -11.6290 c3         1 923      -0.121600
     29 C29         -3.2770     0.3180     3.7620 c3         1 923       0.151800
     30 O30         -3.1440     1.7260     3.5620 oh         1 923      -0.592800
     31 C31         -4.6370    -0.1460     3.2360 c3         1 923      -0.121100
     32 C32         -3.1720     0.0020     5.2550 c3         1 923      -0.121100
     33 O33         -1.3040    -0.3570    -4.3610 o          1 923      -0.553500
     34 O34          3.3910    -0.2470    -4.0070 oh         1 923      -0.484100
     35 H1          -0.5430     0.0000    -0.9370 ha         1 923       0.172000
     36 H3           3.1740    -0.0000     1.2310 ha         1 923       0.135000
     37 H4           1.9320     0.0050     3.3450 ha         1 923       0.142000
     38 H7          -2.5990     0.9670     1.3740 hc         1 923       0.075700
     39 H7A         -2.6780    -0.7620     0.9170 hc         1 923       0.075700
     40 H8          -2.2570    -1.4850     3.1170 h1         1 923       0.066700
     41 H10          3.2260     0.0140    -1.2600 ha         1 923       0.157000
     42 H17          0.3430    -2.4940    -6.1490 ha         1 923       0.135000
     43 H20          2.2460     1.1970    -8.8240 ha         1 923       0.141000
     44 H21          2.0170     1.4480    -6.3920 ha         1 923       0.143000
     45 H22          1.1630    -3.7130    -9.0190 hc         1 923       0.070200
     46 H22A        -0.5580    -3.2550    -8.8520 hc         1 923       0.070200
     47 H23         -0.4710    -1.7910   -10.6920 h1         1 923       0.066700
     48 H26          0.1020    -1.9550   -13.0570 hc         1 923       0.046533
     49 H26A         1.3330    -3.0840   -13.6400 hc         1 923       0.046533
     50 H26B         1.8170    -1.6010   -12.8050 hc         1 923       0.046533
     51 HO27         2.7150    -4.0470   -11.8870 ho         1 923       0.404000
     52 H28          0.2880    -4.8470   -12.5670 hc         1 923       0.046533
     53 H28A        -0.9300    -4.0080   -11.5960 hc         1 923       0.046533
     54 H28B         0.2900    -5.0180   -10.8070 hc         1 923       0.046533
     55 HO30        -3.7470     2.1820     4.1250 ho         1 923       0.406000
     56 H31         -4.8230     0.3070     2.2700 hc         1 923       0.047200
     57 H31A        -4.6360    -1.2240     3.1360 hc         1 923       0.047200
     58 H31B        -5.4130     0.1520     3.9300 hc         1 923       0.047200
     59 H32         -4.0450     0.3870     5.7680 hc         1 923       0.047200
     60 H32A        -3.1150    -1.0710     5.3930 hc         1 923       0.047200
     61 H32B        -2.2810     0.4660     5.6600 hc         1 923       0.047200
     62 HO34         3.7520    -1.0970    -3.8130 ho         1 923       0.434000
@<TRIPOS>BOND
     1     1     2 ar
     2     1     6 ar
     3     1    35 1
     4     2     3 ar
     5     2    10 1
     6     3     4 ar
     7     3    36 1
     8     4     5 ar
     9     4    37 1
    10     5     6 ar
    11     5     9 1
    12     6     7 1
    13     7     8 1
    14     7    38 1
    15     7    39 1
    16     8     9 1
    17     8    29 1
    18     8    40 1
    19    10    11 2
    20    10    41 1
    21    11    12 1
    22    11    15 1
    23    12    13 1
    24    13    14 1
    25    13    33 2
    26    14    15 2
    27    14    16 1
    28    15    34 1
    29    16    17 ar
    30    16    21 ar
    31    17    18 ar
    32    17    42 1
    33    18    19 ar
    34    18    22 1
    35    19    20 ar
    36    19    24 1
    37    20    21 ar
    38    20    43 1
    39    21    44 1
    40    22    23 1
    41    22    45 1
    42    22    46 1
    43    23    24 1
    44    23    25 1
    45    23    47 1
    46    25    26 1
    47    25    27 1
    48    25    28 1
    49    26    48 1
    50    26    49 1
    51    26    50 1
    52    27    51 1
    53    28    52 1
    54    28    53 1
    55    28    54 1
    56    29    30 1
    57    29    31 1
    58    29    32 1
    59    30    55 1
    60    31    56 1
    61    31    57 1
    62    31    58 1
    63    32    59 1
    64    32    60 1
    65    32    61 1
    66    34    62 1
@<TRIPOS>SUBSTRUCTURE
     1 923         1 TEMP              0 ****  ****    0 ROOT
