@<TRIPOS>MOLECULE
molecule
   47    51     1     0     0
SMALL
bcc


@<TRIPOS>ATOM
      1 N1           0.0000     0.0000     0.0000 nv         1 924      -1.071500
      2 C2           1.3880     0.0000     0.0000 ca         1 924       0.723200
      3 N3           2.0420     0.0000     1.1450 nb         1 924      -0.722000
      4 C4           3.3650    -0.0000     1.2010 ca         1 924       0.439200
      5 C5           4.1200    -0.0010     0.0660 ca         1 924      -0.236300
      6 C6           3.4860    -0.0000    -1.1850 ca         1 924       0.016900
      7 S7           4.1380    -0.0010    -2.8160 ss         1 924      -0.087500
      8 C8           2.5370    -0.0010    -3.5330 cc         1 924      -0.085400
      9 C9           1.5880    -0.0010    -2.5980 cd         1 924      -0.004400
     10 C10          0.1420    -0.0010    -2.9230 ca         1 924      -0.063800
     11 C11         -0.6860     1.0100    -2.4380 ca         1 924      -0.061000
     12 C12         -2.0280     1.0080    -2.7420 ca         1 924      -0.194000
     13 C13         -2.5730    -0.0060    -3.5350 ca         1 924       0.061600
     14 N14         -3.8960    -0.1880    -3.9520 n          1 924      -0.377000
     15 C15         -4.0030    -1.3950    -4.7750 c3         1 924       0.107000
     16 C16         -2.5780    -1.9690    -4.8370 c3         1 924      -0.044100
     17 C17         -1.7450    -1.0100    -4.0150 ca         1 924      -0.143300
     18 C18         -0.3970    -1.0100    -3.7190 ca         1 924      -0.071000
     19 C19         -4.9230     0.6270    -3.6410 c          1 924       0.671100
     20 O20         -6.0380     0.3840    -4.0510 o          1 924      -0.572100
     21 C21         -4.6860     1.8440    -2.7820 c3         1 924      -0.112100
     22 C22         -5.9860     2.5810    -2.5840 ca         1 924      -0.074300
     23 C23         -6.8010     2.2670    -1.5130 ca         1 924      -0.110000
     24 C24         -7.9940     2.9430    -1.3310 ca         1 924      -0.125000
     25 C25         -8.3710     3.9300    -2.2210 ca         1 924      -0.123000
     26 C26         -7.5560     4.2430    -3.2940 ca         1 924      -0.125000
     27 C27         -6.3600     3.5720    -3.4710 ca         1 924      -0.110000
     28 C28          2.0900    -0.0070    -1.2290 ca         1 924      -0.206100
     29 HN1         -0.5000     0.8290     0.2550 hn         1 924       0.439300
     30 HN1A        -0.5000    -0.8470    -0.1860 hn         1 924       0.439300
     31 H4           3.8560    -0.0000     2.1660 h4         1 924       0.025100
     32 H5           5.2020    -0.0010     0.1300 ha         1 924       0.142000
     33 H8           2.3450    -0.0010    -4.5990 h4         1 924       0.177000
     34 H11         -0.2650     1.8210    -1.8570 ha         1 924       0.142000
     35 H12         -2.6670     1.7960    -2.3630 ha         1 924       0.144000
     36 H15         -4.6600    -2.1070    -4.2910 h1         1 924       0.063700
     37 H16         -2.2280    -1.9690    -5.8620 hc         1 924       0.064700
     38 H18          0.2420    -1.7950    -4.1040 ha         1 924       0.138000
     39 H21         -3.9710     2.4960    -3.2690 hc         1 924       0.074700
     40 H21A        -4.2960     1.5350    -1.8190 hc         1 924       0.074700
     41 H23         -6.5050     1.4940    -0.8150 ha         1 924       0.128500
     42 H24         -8.6330     2.6980    -0.4910 ha         1 924       0.130000
     43 H25         -9.3070     4.4570    -2.0810 ha         1 924       0.129000
     44 H26         -7.8510     5.0180    -3.9900 ha         1 924       0.130000
     45 H27         -5.7210     3.8170    -4.3110 ha         1 924       0.128500
     46 H181        -4.3300    -1.1260    -5.7720 h1         1 924       0.063700
     47 H19         -2.5600    -2.9510    -4.3800 hc         1 924       0.064700
@<TRIPOS>BOND
     1     1     2 1
     2     1    29 1
     3     1    30 1
     4     2    28 ar
     5     2     3 ar
     6     3     4 ar
     7     4     5 ar
     8     4    31 1
     9     5    32 1
    10     6     5 ar
    11     7     6 1
    12     8     7 1
    13     8    33 1
    14     9     8 2
    15     9    28 1
    16    10     9 1
    17    11    10 ar
    18    11    34 1
    19    12    11 ar
    20    12    35 1
    21    13    12 ar
    22    13    17 ar
    23    14    13 1
    24    15    14 1
    25    15    16 1
    26    15    36 1
    27    16    17 1
    28    16    37 1
    29    17    18 ar
    30    18    10 ar
    31    18    38 1
    32    19    14 1
    33    19    20 2
    34    21    19 1
    35    21    39 1
    36    21    40 1
    37    22    21 1
    38    23    22 ar
    39    23    41 1
    40    24    23 ar
    41    24    42 1
    42    25    24 ar
    43    25    26 ar
    44    25    43 1
    45    26    27 ar
    46    26    44 1
    47    27    22 ar
    48    27    45 1
    49    28     6 ar
    50    15    46 1
    51    16    47 1
@<TRIPOS>SUBSTRUCTURE
     1 924         1 TEMP              0 ****  ****    0 ROOT
