@<TRIPOS>MOLECULE
925
   69    73     1     0     0
SMALL
bcc


@<TRIPOS>ATOM
      1 C1           0.0000     0.0000     0.0000 c3         1 925      -0.020850
      2 N1           1.9970     0.0000     1.3750 n3         1 925      -0.320100
      3 O1           1.6300     1.2300     2.0780 oh         1 925      -0.452300
      4 C2           1.5450     0.0000     0.0000 c3         1 925       0.133700
      5 N2           3.9180    -2.6490    -1.3270 ns         1 925      -0.197900
      6 O2           6.0050    -1.9080    -1.4950 o          1 925      -0.644100
      7 C3           2.0050    -1.2310    -0.7780 c3         1 925      -0.037400
      8 N3          11.4970    -6.9170    -5.7370 nc         1 925      -0.551000
      9 O3           9.8250    -0.8160    -6.2200 oh         1 925      -0.497100
     10 C4           3.5060    -1.4500    -0.5860 c3         1 925       0.008700
     11 N4          10.9520    -5.1300    -4.3020 na         1 925       0.513200
     12 C5           3.7800    -1.6600     0.9030 c3         1 925      -0.037400
     13 N5           9.8050    -4.6250    -3.6800 nc         1 925      -0.706100
     14 C6           3.3390    -0.4360     1.7030 c3         1 925       0.133700
     15 N6          12.6510    -3.6250    -3.5600 nu         1 925      -0.230000
     16 C7           4.3530     0.6960     1.5090 c3         1 925      -0.020850
     17 C8           3.3680    -0.8240     3.1990 c3         1 925      -0.020850
     18 C9           5.1950    -2.7810    -1.7380 c          1 925       0.598700
     19 C10          5.6090    -3.9890    -2.4840 ca         1 925      -0.163600
     20 C11          4.6800    -4.9910    -2.7640 ca         1 925      -0.080000
     21 C12          5.0680    -6.1190    -3.4600 ca         1 925      -0.114000
     22 C13          6.3750    -6.2600    -3.8850 ca         1 925      -0.061000
     23 C14          7.3120    -5.2660    -3.6110 ca         1 925      -0.108900
     24 C15          6.9280    -4.1250    -2.9150 ca         1 925      -0.010000
     25 C16          8.7740    -5.3790    -4.0120 cd         1 925       0.503200
     26 C17          9.2190    -6.3980    -4.8590 cd         1 925      -0.358600
     27 C18         10.5840    -6.2300    -5.0330 cc         1 925       0.199500
     28 C19         12.7610    -6.5540    -5.7440 cd         1 925       0.430200
     29 C20         13.1790    -5.4410    -5.0150 cd         1 925      -0.294300
     30 C21         12.2630    -4.7290    -4.2910 cc         1 925      -0.042700
     31 C22         12.0720    -2.3790    -3.8160 ca         1 925       0.050600
     32 C23         12.3420    -1.3020    -2.9810 ca         1 925      -0.171000
     33 C24         11.7690    -0.0700    -3.2350 ca         1 925      -0.038000
     34 C25         10.9280     0.0940    -4.3180 ca         1 925      -0.170000
     35 C26         10.6540    -0.9790    -5.1550 ca         1 925       0.170100
     36 C27         11.2310    -2.2140    -4.9080 ca         1 925      -0.191000
     37 C28          1.9990     1.2480    -0.7680 c3         1 925      -0.020850
     38 H1          -0.3610    -0.1790    -1.0060 hc         1 925       0.013533
     39 H1A         -0.3610     0.9600     0.3480 hc         1 925       0.013533
     40 H1B         -0.3610    -0.7810     0.6580 hc         1 925       0.013533
     41 HO1          0.9790     1.0360     2.7320 ho         1 925       0.402000
     42 HN2          3.2540    -3.3740    -1.5160 hn         1 925       0.179500
     43 H3           1.7970    -1.0850    -1.8310 hc         1 925       0.029950
     44 H3A          1.4680    -2.1010    -0.4190 hc         1 925       0.029950
     45 HO3         10.3320    -0.5860    -6.9810 ho         1 925       0.400000
     46 H4           4.0520    -0.5850    -0.9420 h1         1 925       0.071700
     47 H5           3.2320    -2.5280     1.2480 hc         1 925       0.029950
     48 H5A          4.8410    -1.8180     1.0510 hc         1 925       0.029950
     49 HN6         13.3390    -3.7180    -2.8400 hn         1 925       0.298800
     50 H7           3.9770     1.6010     1.9710 hc         1 925       0.013533
     51 H7A          5.2950     0.4210     1.9670 hc         1 925       0.013533
     52 H7B          4.5040     0.8680     0.4500 hc         1 925       0.013533
     53 H8           3.2730     0.0690     3.8050 hc         1 925       0.013533
     54 H8A          4.3050    -1.3170     3.4260 hc         1 925       0.013533
     55 H8B          2.5450    -1.4950     3.4140 hc         1 925       0.013533
     56 H11          3.6540    -4.8850    -2.4340 ha         1 925       0.100000
     57 H12          4.3440    -6.8950    -3.6760 ha         1 925       0.106000
     58 H13          6.6730    -7.1490    -4.4290 ha         1 925       0.111000
     59 H15          7.6540    -3.3490    -2.7000 ha         1 925       0.149000
     60 H17          8.6090    -7.1760    -5.3010 ha         1 925       0.150000
     61 H19         13.4810    -7.1220    -6.3200 h4         1 925      -0.010900
     62 H20         14.2210    -5.1430    -5.0220 ha         1 925       0.135000
     63 H23         13.0020    -1.4280    -2.1310 ha         1 925       0.108000
     64 H24         11.9810     0.7690    -2.5840 ha         1 925       0.102000
     65 H25         10.4800     1.0610    -4.5140 ha         1 925       0.116000
     66 H27         11.0940    -3.0260    -5.6130 ha         1 925       0.118000
     67 H28          1.4930     1.2870    -1.7250 hc         1 925       0.013533
     68 H28A         1.7540     2.1340    -0.1940 hc         1 925       0.013533
     69 H28B         3.0700     1.2050    -0.9270 hc         1 925       0.013533
@<TRIPOS>BOND
     1     1     4 1   
     2     1    38 1   
     3     1    39 1   
     4     1    40 1   
     5     2     3 1   
     6     2     4 1   
     7     2    14 1   
     8     3    41 1   
     9     4     7 1   
    10     4    37 1   
    11     5    10 1   
    12     5    18 1   
    13     5    42 1   
    14     6    18 2   
    15     7    10 1   
    16     7    43 1   
    17     7    44 1   
    18     8    27 1   
    19     8    28 2   
    20     9    35 1   
    21     9    45 1   
    22    10    12 1   
    23    10    46 1   
    24    11    13 1   
    25    11    27 1   
    26    11    30 1   
    27    12    14 1   
    28    12    47 1   
    29    12    48 1   
    30    13    25 2   
    31    14    16 1   
    32    14    17 1   
    33    15    30 1   
    34    15    31 1   
    35    15    49 1   
    36    16    50 1   
    37    16    51 1   
    38    16    52 1   
    39    17    53 1   
    40    17    54 1   
    41    17    55 1   
    42    18    19 1   
    43    19    20 ar  
    44    19    24 ar  
    45    20    21 ar  
    46    20    56 1   
    47    21    22 ar  
    48    21    57 1   
    49    22    23 ar  
    50    22    58 1   
    51    23    24 ar  
    52    23    25 1   
    53    24    59 1   
    54    25    26 1   
    55    26    27 2   
    56    26    60 1   
    57    28    29 1   
    58    28    61 1   
    59    29    30 2   
    60    29    62 1   
    61    31    32 ar  
    62    31    36 ar  
    63    32    33 ar  
    64    32    63 1   
    65    33    34 ar  
    66    33    64 1   
    67    34    35 ar  
    68    34    65 1   
    69    35    36 ar  
    70    36    66 1   
    71    37    67 1   
    72    37    68 1   
    73    37    69 1   
@<TRIPOS>SUBSTRUCTURE
     1 925         1 TEMP              0 ****  ****    0 ROOT
