@<TRIPOS>MOLECULE
molecule
   33    35     1     0     0
SMALL
bcc


@<TRIPOS>ATOM
      1 O13          0.0000     0.0000     0.0000 o          1 926      -0.659500
      2 C3           1.2200     0.0000     0.0000 c          1 926       0.685700
      3 N2           1.8920     0.0000     1.1670 ns         1 926      -0.406100
      4 C1           3.2580     0.0000     1.1850 cc         1 926       0.116400
      5 C6           3.9680    -0.0010     0.0040 cd         1 926      -0.236000
      6 C5           3.2850    -0.0010    -1.2150 cd         1 926      -0.045000
      7 C4           1.9190    -0.0060    -1.2190 cc         1 926      -0.264200
      8 C10          3.9770    -0.0010     2.4760 ca         1 926      -0.088800
      9 C11          3.2620    -0.0010     3.6760 ca         1 926      -0.086000
     10 C12          3.9360     0.0000     4.8800 ca         1 926      -0.137000
     11 C7           5.3180    -0.0010     4.9040 ca         1 926      -0.049000
     12 C8           6.0400    -0.0010     3.7150 ca         1 926       0.002900
     13 C9           5.3720    -0.0070     2.5000 ca         1 926      -0.036000
     14 S14          7.8010    -0.0020     3.7530 ss         1 926      -0.245200
     15 C15          8.1110     1.7270     3.6140 cd         1 926       0.490800
     16 N19          9.3340     2.3110     3.4900 na         1 926      -0.172900
     17 C18          9.1270     3.6680     3.4100 cd         1 926      -0.268600
     18 C20         10.6270     1.6220     3.4520 c3         1 926       0.030600
     19 N16          7.1990     2.6730     3.6030 nc         1 926      -0.694000
     20 C17          7.8000     3.8680     3.4860 cc         1 926       0.318200
     21 H1           5.0510     0.0020     0.0210 ha         1 926       0.149000
     22 H2           3.8340    -0.0030    -2.1490 ha         1 926       0.137000
     23 H3           1.3770    -0.0060    -2.1570 ha         1 926       0.163000
     24 H5           2.1790    -0.0000     3.6610 ha         1 926       0.130000
     25 H6           3.3800     0.0000     5.8100 ha         1 926       0.141000
     26 H7           5.8420     0.0020     5.8530 ha         1 926       0.148000
     27 H8           5.9320    -0.0070     1.5720 ha         1 926       0.152000
     28 H9           9.8890     4.4310     3.3080 h4         1 926       0.175000
     29 H10         10.5810     0.8060     2.7420 h1         1 926       0.057033
     30 H11         11.3990     2.3200     3.1510 h1         1 926       0.057033
     31 H12         10.8580     1.2320     4.4360 h1         1 926       0.057033
     32 H13          7.3000     4.8280     3.4520 h4         1 926       0.043100
     33 H14          1.3850     0.0000     2.0300 hn         1 926       0.335500
@<TRIPOS>BOND
     1     1     2 2
     2     2     7 1
     3     2     3 1
     4     7     6 2
     5     3     4 1
     6    19    20 1
     7    19    15 2
     8    14    15 1
     9    14    12 1
    10    20    17 2
    11    15    16 1
    12    13    12 ar
    13    13     8 ar
    14     6     5 1
    15     4     8 1
    16     4     5 2
    17    12    11 ar
    18     8     9 ar
    19    17    16 1
    20    16    18 1
    21    11    10 ar
    22     9    10 ar
    23     5    21 1
    24     6    22 1
    25     7    23 1
    26     9    24 1
    27    10    25 1
    28    11    26 1
    29    13    27 1
    30    17    28 1
    31    18    29 1
    32    18    30 1
    33    18    31 1
    34    20    32 1
    35     3    33 1
@<TRIPOS>SUBSTRUCTURE
     1 926         1 TEMP              0 ****  ****    0 ROOT
