@<TRIPOS>MOLECULE
928
   22    23     1     0     0
SMALL
bcc


@<TRIPOS>ATOM
      1 N15         -1.5280    -0.0170    -2.0640 n1         1 928      -0.413800
      2 C14         -0.8520     0.0020    -1.1510 cg         1 928       0.285800
      3 C4           0.0000     0.0000     0.0000 cc         1 928      -0.266300
      4 C3           1.4150     0.0000     0.0000 cc         1 928       0.458200
      5 N2           1.8230     0.0000     1.2380 nd         1 928      -0.664800
      6 C5          -0.4070     0.0050     1.3310 cd         1 928      -0.089700
      7 N13         -1.7110     0.0120     1.7910 nv         1 928      -0.448200
      8 N1           0.7120    -0.0000     2.0890 na         1 928       0.608300
      9 C6           0.7530    -0.0010     3.4900 ca         1 928      -0.152200
     10 C11          1.7580    -0.6910     4.1560 ca         1 928      -0.087500
     11 C10          1.7960    -0.6890     5.5370 ca         1 928      -0.084500
     12 C9           0.8340    -0.0020     6.2570 ca         1 928      -0.032600
     13 Cl12         0.8860    -0.0020     7.9920 cl         1 928      -0.010400
     14 C8          -0.1670     0.6850     5.5950 ca         1 928      -0.084500
     15 C7          -0.2080     0.6920     4.2140 ca         1 928      -0.087500
     16 H3           2.0510     0.0460    -0.8750 h4         1 928       0.011100
     17 HN13        -1.9830    -0.6030     2.5320 hn         1 928       0.282800
     18 HN1A        -2.3810     0.6360     1.3870 hn         1 928       0.282800
     19 H11          2.5110    -1.2290     3.5920 ha         1 928       0.126500
     20 H10          2.5790    -1.2260     6.0580 ha         1 928       0.120500
     21 H8          -0.9200     1.2230     6.1600 ha         1 928       0.120500
     22 H7          -0.9900     1.2340     3.6960 ha         1 928       0.126500
@<TRIPOS>BOND
     1     1     2 3   
     2     2     3 1   
     3     3     4 1   
     4     3     6 2   
     5     4     5 2   
     6     4    16 1   
     7     5     8 1   
     8     6     7 1   
     9     6     8 1   
    10     7    17 1   
    11     7    18 1   
    12     8     9 1   
    13     9    10 ar  
    14     9    15 ar  
    15    10    11 ar  
    16    10    19 1   
    17    11    12 ar  
    18    11    20 1   
    19    12    13 1   
    20    12    14 ar  
    21    14    15 ar  
    22    14    21 1   
    23    15    22 1   
@<TRIPOS>SUBSTRUCTURE
     1 928         1 TEMP              0 ****  ****    0 ROOT
