@<TRIPOS>MOLECULE
molecule
   77    79     1     0     0
SMALL
bcc


@<TRIPOS>ATOM
      1 C4           0.0000     0.0000     0.0000 c3         1 92A      -0.060400
      2 C5           1.5300     0.0000     0.0000 c3         1 92A      -0.156400
      3 C6           2.0320     0.0000     1.4210 c          1 92A       0.669100
      4 C13          4.9790     3.0160     3.7230 ca         1 92A      -0.105000
      5 C15          5.0330     4.7530     2.0700 ca         1 92A       0.057600
      6 C17          4.4210     6.4850     0.5580 c          1 92A       0.657100
      7 C20          3.7640     8.0900    -1.2140 c3         1 92A      -0.021100
      8 C21          3.7770     9.5410    -1.6200 ca         1 92A      -0.089300
      9 C22          4.8410    10.0470    -2.3440 ca         1 92A      -0.116500
     10 C24          3.8020    12.2050    -2.3640 ca         1 92A       0.027400
     11 C26          2.7340    11.6970    -1.6460 ca         1 92A      -0.119000
     12 C28          5.2260     3.8000     1.0780 ca         1 92A      -0.139500
     13 C30          3.8970    -1.4160     3.5630 c          1 92A       0.651100
     14 N32          4.1020    -1.6500     4.8740 n          1 92A      -0.489800
     15 C38          4.2360    -3.0240     5.3780 c3         1 92A       0.102000
     16 C37          3.2340    -3.2310     6.5180 c3         1 92A      -0.094900
     17 C35          3.4440    -2.1490     7.5790 c3         1 92A      -0.073700
     18 C36          2.4670    -2.3740     8.7350 c3         1 92A      -0.088100
     19 C34          3.1950    -0.7710     6.9630 c3         1 92A      -0.094900
     20 C33          4.2020    -0.5360     5.8270 c3         1 92A       0.102000
     21 C9           3.8450    -0.0000     3.0490 c3         1 92A       0.049700
     22 N8           3.3580     0.0000     1.6680 ns         1 92A      -0.562900
     23 O7           1.2440    -0.0000     2.3430 o          1 92A      -0.613100
     24 C2          -0.5100     0.0010    -1.4430 c3         1 92A      -0.081700
     25 C3          -0.1040    -1.3060    -2.1270 c3         1 92A      -0.088100
     26 C1          -2.0350     0.1260    -1.4450 c3         1 92A      -0.088100
     27 C11          5.2480     0.6090     3.0940 c3         1 92A      -0.045100
     28 C12          5.1730     2.0710     2.7330 ca         1 92A      -0.102300
     29 C29          5.2950     2.4620     1.4130 ca         1 92A      -0.105000
     30 C14          4.9100     4.3570     3.3940 ca         1 92A      -0.139500
     31 O18          3.9240     5.6560    -0.1730 o          1 92A      -0.592100
     32 C19          4.4350     7.9360     0.1520 c3         1 92A      -0.155400
     33 C27          2.7230    10.3660    -1.2730 ca         1 92A      -0.116500
     34 Cl1          3.8180    13.8770    -2.8310 cl         1 92A      -0.109400
     35 C23          4.8540    11.3780    -2.7160 ca         1 92A      -0.119000
     36 H1          -0.3610    -0.8850     0.5100 hc         1 92A       0.058700
     37 H2          -0.3610     0.8840     0.5110 hc         1 92A       0.058700
     38 H3           1.8910     0.8850    -0.5110 hc         1 92A       0.063200
     39 H4           1.8910    -0.8840    -0.5110 hc         1 92A       0.063200
     40 H5           4.8830     2.7060     4.7560 ha         1 92A       0.130000
     41 H6           4.3020     7.5050    -1.9490 hc         1 92A       0.068200
     42 H7           2.7400     7.7410    -1.1540 hc         1 92A       0.068200
     43 H8           5.6640     9.4000    -2.6190 ha         1 92A       0.138500
     44 H9           1.9080    12.3430    -1.3730 ha         1 92A       0.145000
     45 H10          5.3220     4.1060     0.0430 ha         1 92A       0.146000
     46 H11          4.0250    -3.7250     4.5790 h1         1 92A       0.053950
     47 H12          5.2420    -3.1780     5.7480 h1         1 92A       0.053950
     48 H13          3.3900    -4.2060     6.9620 hc         1 92A       0.053950
     49 H14          2.2260    -3.1620     6.1280 hc         1 92A       0.053950
     50 H15          4.4620    -2.1990     7.9460 hc         1 92A       0.047700
     51 H16          2.6160    -1.6090     9.4880 hc         1 92A       0.035367
     52 H17          1.4510    -2.3220     8.3650 hc         1 92A       0.035367
     53 H18          2.6430    -3.3490     9.1730 hc         1 92A       0.035367
     54 H19          3.3230    -0.0080     7.7210 hc         1 92A       0.053950
     55 H20          2.1880    -0.7300     6.5660 hc         1 92A       0.053950
     56 H21          3.9700     0.3940     5.3230 h1         1 92A       0.053950
     57 H22          5.2060    -0.4960     6.2340 h1         1 92A       0.053950
     58 H23          3.1770     0.5850     3.6680 h1         1 92A       0.098700
     59 H24          4.0080    -0.0500     0.9080 hn         1 92A       0.319500
     60 H25         -0.0780     0.8380    -1.9780 hc         1 92A       0.046700
     61 H26         -0.7800    -1.5080    -2.9490 hc         1 92A       0.034033
     62 H27         -0.1520    -2.1190    -1.4120 hc         1 92A       0.034033
     63 H28          0.9070    -1.2170    -2.5060 hc         1 92A       0.034033
     64 H29         -2.4680    -0.7300    -0.9420 hc         1 92A       0.034033
     65 H30         -2.3930     0.1640    -2.4660 hc         1 92A       0.034033
     66 H31         -2.3230     1.0330    -0.9270 hc         1 92A       0.034033
     67 H32          5.8880     0.0950     2.3870 hc         1 92A       0.061700
     68 H33          5.6550     0.5040     4.0930 hc         1 92A       0.061700
     69 H34          5.4460     1.7180     0.6400 ha         1 92A       0.130000
     70 H35          4.7590     5.0970     4.1700 ha         1 92A       0.146000
     71 H36          5.3370     6.7990     2.3550 hn         1 92A       0.324500
     72 H37          3.8960     8.5220     0.8870 hc         1 92A       0.066200
     73 H38          5.4590     8.2850     0.0920 hc         1 92A       0.066200
     74 H39          1.8870     9.9680    -0.7100 ha         1 92A       0.138500
     75 H40          5.6890    11.7750    -3.2810 ha         1 92A       0.145000
     76 N16          4.9620     6.1100     1.7340 ns         1 92A      -0.480100
     77 O31          3.7520    -2.3450     2.7970 o          1 92A      -0.603100
@<TRIPOS>BOND
     1    77    13 2
     2    15    16 1
     3    15    14 1
     4    16    17 1
     5     4    30 ar
     6     4    28 ar
     7    13    14 1
     8    13    21 1
     9    31     6 2
    10    30     5 ar
    11    33    11 ar
    12    33     8 ar
    13     2     3 1
    14     2     1 1
    15    14    20 1
    16    11    10 ar
    17     7     8 1
    18     7    32 1
    19    27    21 1
    20    27    28 1
    21    22     3 1
    22    22    21 1
    23     3    23 2
    24     8     9 ar
    25    28    29 ar
    26    17    18 1
    27    17    19 1
    28     6    32 1
    29     6    76 1
    30    25    24 1
    31    10    34 1
    32    10    35 ar
    33     5    76 1
    34     5    12 ar
    35    24     1 1
    36    24    26 1
    37     9    35 ar
    38    20    19 1
    39    29    12 ar
    40     1    36 1
    41     1    37 1
    42     2    38 1
    43     2    39 1
    44     4    40 1
    45     7    41 1
    46     7    42 1
    47     9    43 1
    48    11    44 1
    49    12    45 1
    50    15    46 1
    51    15    47 1
    52    16    48 1
    53    16    49 1
    54    17    50 1
    55    18    51 1
    56    18    52 1
    57    18    53 1
    58    19    54 1
    59    19    55 1
    60    20    56 1
    61    20    57 1
    62    21    58 1
    63    22    59 1
    64    24    60 1
    65    25    61 1
    66    25    62 1
    67    25    63 1
    68    26    64 1
    69    26    65 1
    70    26    66 1
    71    27    67 1
    72    27    68 1
    73    29    69 1
    74    30    70 1
    75    76    71 1
    76    32    72 1
    77    32    73 1
    78    33    74 1
    79    35    75 1
@<TRIPOS>SUBSTRUCTURE
     1 92A         1 TEMP              0 ****  ****    0 ROOT
