@<TRIPOS>MOLECULE
92B
   32    34     1     0     0
SMALL
bcc


@<TRIPOS>ATOM
      1 N2           0.0000     0.0000     0.0000 n7         1 92B      -0.518200
      2 C22          1.4880     0.0000     0.0000 c3         1 92B       0.134800
      3 C23          1.9400     0.0000     1.4800 c3         1 92B      -0.024400
      4 C8           0.6280     0.0050     2.2760 c3         1 92B      -0.016500
      5 C21         -0.3790    -0.5850     1.2960 c3         1 92B       0.084500
      6 C25         -1.7740    -0.4410     1.7030 c          1 92B       0.646500
      7 O7          -2.5660    -0.2140     0.8130 o          1 92B      -0.651500
      8 C7           0.6670    -0.6790     3.5710 c2         1 92B      -0.127200
      9 C6          -0.2690    -1.1470     4.2790 c2         1 92B      -0.154200
     10 C5          -1.7410    -1.1630     4.1290 c3         1 92B       0.078900
     11 C4          -2.3530    -0.3810     5.3210 c3         1 92B      -0.048400
     12 C3          -3.7390     0.0510     4.8030 c3         1 92B      -0.020400
     13 C2          -3.6330    -0.0200     3.2730 c3         1 92B      -0.085300
     14 N1          -2.2860    -0.5290     2.9320 n          1 92B      -0.118800
     15 C1          -3.8240     1.3540     2.6850 c          1 92B       0.977600
     16 O2          -2.9360     1.8650     2.0460 o          1 92B      -0.881800
     17 OXT         -4.9810     2.0090     2.8720 o          1 92B      -0.881800
     18 H1          -0.3340    -0.5850    -0.7400 hn         1 92B       0.252800
     19 H26          1.8560     0.8890    -0.4980 h1         1 92B      -0.001800
     20 H27          1.8560    -0.8890    -0.4980 h1         1 92B      -0.001800
     21 H28          2.5170     0.8900     1.6980 hc         1 92B       0.009200
     22 H29          2.5120    -0.8940     1.7000 hc         1 92B       0.009200
     23 H30          0.3520     1.0370     2.4570 hc         1 92B       0.073700
     24 H31         -0.1790    -1.6480     1.2350 h1         1 92B      -0.012300
     25 H32          1.6590    -0.8040     3.9890 ha         1 92B       0.075000
     26 H33          0.0770    -1.6360     5.1810 ha         1 92B       0.074000
     27 H34         -2.0860    -2.1890     4.1680 h1         1 92B       0.008700
     28 H42         -1.7490     0.4870     5.5550 hc         1 92B       0.011200
     29 H35         -2.4550    -1.0260     6.1850 hc         1 92B       0.011200
     30 H36         -3.8570     1.0960     5.0600 hc         1 92B       0.035700
     31 H37         -4.3860    -0.6970     2.8880 h1         1 92B       0.027700
     32 H2          -4.4390    -0.7200     5.1040 hc         1 92B       0.035700
@<TRIPOS>BOND
     1     1     2 1   
     2     1     5 1   
     3     1    18 1   
     4     2     3 1   
     5     2    19 1   
     6     2    20 1   
     7     3     4 1   
     8     3    21 1   
     9     3    22 1   
    10     4     5 1   
    11     4     8 1   
    12     4    23 1   
    13     5     6 1   
    14     5    24 1   
    15     6     7 2   
    16     6    14 1   
    17     8     9 2   
    18     8    25 1   
    19     9    10 1   
    20     9    26 1   
    21    10    11 1   
    22    10    14 1   
    23    10    27 1   
    24    11    12 1   
    25    11    28 1   
    26    11    29 1   
    27    12    13 1   
    28    12    30 1   
    29    12    32 1   
    30    13    14 1   
    31    13    15 1   
    32    13    31 1   
    33    15    16 1   
    34    15    17 1   
@<TRIPOS>SUBSTRUCTURE
     1 92B         1 TEMP              0 ****  ****    0 ROOT
