@<TRIPOS>MOLECULE
molecule
   28    30     1     0     0
SMALL
bcc


@<TRIPOS>ATOM
      1 C10          0.0000     0.0000     0.0000 ca         1 92C      -0.089800
      2 C11          1.4810     0.0000     0.0000 cc         1 92C      -0.206400
      3 C01          1.8620     0.0000     1.4210 c          1 92C       0.720700
      4 C04         -0.3950    -0.0060     1.3440 ca         1 92C       0.051600
      5 C05         -1.7520    -0.0080     1.6490 ca         1 92C      -0.148000
      6 C06         -2.6900    -0.0030     0.6380 ca         1 92C      -0.093000
      7 C07         -2.2950     0.0030    -0.6910 ca         1 92C       0.002400
      8 C09         -0.9530     0.0000    -1.0130 ca         1 92C      -0.077000
      9 C12          2.3130     0.0000    -1.0840 cf         1 92C       0.087800
     10 C13          3.7550     0.1790    -0.9000 cd         1 92C      -0.350100
     11 C14          4.7820    -0.4040    -1.6820 cd         1 92C       0.365200
     12 C18          4.3730     0.9540     0.0680 cc         1 92C      -0.013300
     13 N03          0.7360     0.0000     2.1530 ns         1 92C      -0.452100
     14 N15          5.9280    -0.0050    -1.2050 nc         1 92C      -0.521800
     15 N16          5.6990     0.8410    -0.1150 na         1 92C       0.077400
     16 O02          2.9990     0.0000     1.8570 o          1 92C      -0.630500
     17 Cl8         -3.4900     0.0070    -1.9500 cl         1 92C      -0.107400
     18 H2          -2.0730    -0.0120     2.6840 ha         1 92C       0.138000
     19 H3          -3.7450    -0.0010     0.8840 ha         1 92C       0.147000
     20 H4          -0.6430     0.0050    -2.0510 ha         1 92C       0.145000
     21 H5           1.9050    -0.1320    -2.0790 ha         1 92C       0.140000
     22 H7           4.6410    -1.0680    -2.5270 h4         1 92C       0.050100
     23 H8           6.7310     1.0830     1.6890 h1         1 92C       0.058033
     24 H9           7.7010     1.3400     0.2330 h1         1 92C       0.058033
     25 H10          6.5270     2.5620     0.7410 h1         1 92C       0.058033
     26 H11          3.8800     1.6480     0.7380 h4         1 92C       0.188000
     27 H12          0.7130     0.0000     3.1530 hn         1 92C       0.339500
     28 C17          6.7320     1.4990     0.6900 c3         1 92C       0.061600
@<TRIPOS>BOND
     1     5     6 ar
     2     5     4 ar
     3    13     4 1
     4    13     3 1
     5     6     7 ar
     6     4     1 ar
     7    16     3 2
     8     3     2 1
     9     7     8 ar
    10     7    17 1
    11     1     2 1
    12     1     8 ar
    13     2     9 2
    14     9    10 1
    15    12    10 2
    16    12    15 1
    17    10    11 1
    18    15    28 1
    19    15    14 1
    20    11    14 2
    21     5    18 1
    22     6    19 1
    23     8    20 1
    24     9    21 1
    25    11    22 1
    26    28    23 1
    27    28    24 1
    28    28    25 1
    29    12    26 1
    30    13    27 1
@<TRIPOS>SUBSTRUCTURE
     1 92C         1 TEMP              0 ****  ****    0 ROOT
