@<TRIPOS>MOLECULE
92C
   28    30     1     0     0
SMALL
bcc


@<TRIPOS>ATOM
      1 C10          0.0000     0.0000     0.0000 ca         1 92C      -0.079800
      2 C11          1.4810     0.0000     0.0000 cc         1 92C      -0.226400
      3 C01          1.8620     0.0000     1.4210 c          1 92C       0.630700
      4 C04         -0.3950    -0.0060     1.3440 ca         1 92C      -0.108400
      5 C05         -1.7520    -0.0080     1.6490 ca         1 92C      -0.107000
      6 C06         -2.6900    -0.0030     0.6380 ca         1 92C      -0.073000
      7 C07         -2.2950     0.0030    -0.6910 ca         1 92C      -0.057600
      8 C09         -0.9530     0.0000    -1.0130 ca         1 92C      -0.049000
      9 C12          2.3130     0.0000    -1.0840 cf         1 92C       0.152800
     10 C13          3.7550     0.1790    -0.9000 cd         1 92C      -0.365100
     11 C14          4.7820    -0.4040    -1.6820 cd         1 92C       0.431200
     12 C18          4.3730     0.9540     0.0680 cc         1 92C      -0.157300
     13 N03          0.7360     0.0000     2.1530 ns         1 92C       0.004900
     14 N15          5.9280    -0.0050    -1.2050 nc         1 92C      -0.665800
     15 N16          5.6990     0.8410    -0.1150 na         1 92C       0.508400
     16 O02          2.9990     0.0000     1.8570 o          1 92C      -0.677500
     17 Cl8         -3.4900     0.0070    -1.9500 cl         1 92C      -0.026400
     18 H2          -2.0730    -0.0120     2.6840 ha         1 92C       0.108000
     19 H3          -3.7450    -0.0010     0.8840 ha         1 92C       0.115000
     20 H4          -0.6430     0.0050    -2.0510 ha         1 92C       0.114000
     21 H5           1.9070    -0.1430    -2.0780 ha         1 92C       0.099000
     22 H7           4.6410    -1.0680    -2.5270 h4         1 92C       0.003100
     23 H8           6.7310     1.0830     1.6890 h1         1 92C       0.023700
     24 H9           7.7010     1.3400     0.2330 h1         1 92C       0.023700
     25 H10          6.5270     2.5620     0.7410 h1         1 92C       0.023700
     26 H11          3.8800     1.6470     0.7390 h4         1 92C       0.161000
     27 H12          0.7130     0.0000     3.1530 hn         1 92C       0.174500
     28 C17          6.7320     1.4990     0.6900 c3         1 92C       0.019600
@<TRIPOS>BOND
     1     1     2 1   
     2     1     4 ar  
     3     1     8 ar  
     4     2     3 1   
     5     2     9 2   
     6     3    13 1   
     7     3    16 2   
     8     4     5 ar  
     9     4    13 1   
    10     5     6 ar  
    11     5    18 1   
    12     6     7 ar  
    13     6    19 1   
    14     7     8 ar  
    15     7    17 1   
    16     8    20 1   
    17     9    10 1   
    18     9    21 1   
    19    10    11 1   
    20    10    12 2   
    21    11    14 2   
    22    11    22 1   
    23    12    15 1   
    24    12    26 1   
    25    13    27 1   
    26    14    15 1   
    27    15    28 1   
    28    23    28 1   
    29    24    28 1   
    30    25    28 1   
@<TRIPOS>SUBSTRUCTURE
     1 92C         1 TEMP              0 ****  ****    0 ROOT
