@<TRIPOS>MOLECULE
molecule
   62    65     1     0     0
SMALL
bcc


@<TRIPOS>ATOM
      1 C1           0.0000     0.0000     0.0000 ca         1 92D      -0.013300
      2 C2          -0.7520     0.0070    -1.3060 c3         1 92D      -0.052800
      3 C3           1.3800     0.0000     0.0000 ca         1 92D      -0.144000
      4 C11          6.0980    -0.4400     6.2190 ca         1 92D      -0.110000
      5 C12          5.5870     0.3240     7.2540 ca         1 92D      -0.146000
      6 C13          4.3780     0.9770     7.1030 ca         1 92D      -0.053300
      7 C14          3.6760     0.8690     5.9180 ca         1 92D      -0.123000
      8 C15         -0.0070    -0.0000     2.4110 ca         1 92D      -0.040000
      9 C16         -0.7010    -0.0000     1.2060 cp         1 92D      -0.166500
     10 C17         -2.1850     0.0010     1.2030 cp         1 92D       0.530800
     11 C18         -2.8930     0.9060     1.9890 ca         1 92D      -0.348600
     12 C19         -4.2860     0.8660     1.9490 ca         1 92D       0.596200
     13 C21         -6.6000     1.8990     1.8440 c3         1 92D       0.097800
     14 C22         -7.4120     2.9940     2.5420 c3         1 92D       0.131900
     15 C24         -5.7900     3.1010     4.3010 c3         1 92D       0.131900
     16 C25         -4.9610     2.0080     3.6210 c3         1 92D       0.097800
     17 C27         -4.1770    -0.8700     0.4380 ca         1 92D       0.695900
     18 C29          3.8260     1.8090     8.2320 c3         1 92D      -0.022700
     19 C30          2.4660     1.2510     8.6570 c3         1 92D      -0.081433
     20 N20         -5.1760     2.0710     2.1680 nh         1 92D      -0.627300
     21 N8           3.4800    -0.0040     3.6750 ns         1 92D      -0.474100
     22 C31          4.7900     1.7600     9.4190 c3         1 92D      -0.081433
     23 C6           2.1330    -0.0030     3.6830 c          1 92D       0.676700
     24 C5           1.3870    -0.0010     2.4060 ca         1 92D      -0.162600
     25 N26         -4.8830    -0.0300     1.1680 nb         1 92D      -0.776000
     26 C4           2.0760     0.0000     1.1920 ca         1 92D      -0.088000
     27 C32          3.6610     3.2570     7.7660 c3         1 92D      -0.081433
     28 C10          5.4040    -0.5480     5.0310 ca         1 92D      -0.166000
     29 O7           1.5310    -0.0040     4.7390 o          1 92D      -0.595100
     30 C9           4.1870     0.1030     4.8780 ca         1 92D       0.056600
     31 N28         -2.8610    -0.8620     0.4430 nb         1 92D      -0.747000
     32 O23         -7.1660     2.9380     3.9500 os         1 92D      -0.421600
     33 H1          -0.0720     0.2520    -2.1120 hc         1 92D       0.054033
     34 H2          -1.1800    -0.9730    -1.4810 hc         1 92D       0.054033
     35 H3          -1.5430     0.7450    -1.2630 hc         1 92D       0.054033
     36 H4           1.9200     0.0000    -0.9400 ha         1 92D       0.140000
     37 H5           7.0460    -0.9490     6.3400 ha         1 92D       0.130000
     38 H6           6.1350     0.4080     8.1840 ha         1 92D       0.137000
     39 H7           2.7290     1.3820     5.8000 ha         1 92D       0.160000
     40 H8          -0.5470    -0.0000     3.3500 ha         1 92D       0.162000
     41 H9          -2.3880     1.7650     2.4150 ha         1 92D       0.160000
     42 H10         -6.9340     0.9280     2.1890 h1         1 92D       0.063200
     43 H11         -6.7380     1.9760     0.7720 h1         1 92D       0.063200
     44 H12         -8.4670     2.8360     2.3540 h1         1 92D       0.056200
     45 H13         -7.1120     3.9630     2.1620 h1         1 92D       0.056200
     46 H14         -5.4460     4.0740     3.9690 h1         1 92D       0.056200
     47 H15         -5.6810     3.0210     5.3760 h1         1 92D       0.056200
     48 H16         -3.9110     2.1640     3.8370 h1         1 92D       0.063200
     49 H17         -5.2720     1.0380     3.9900 h1         1 92D       0.063200
     50 H18         -4.6950    -1.5860    -0.1890 h5         1 92D       0.060100
     51 H19          1.7150     1.5390     7.9310 hc         1 92D       0.037589
     52 H20          2.1990     1.6490     9.6280 hc         1 92D       0.037589
     53 H21          2.5200     0.1700     8.7120 hc         1 92D       0.037589
     54 H22          3.9760    -0.0610     2.8070 hn         1 92D       0.324500
     55 H23          5.7530     2.1540     9.1180 hc         1 92D       0.037589
     56 H24          4.9060     0.7350     9.7480 hc         1 92D       0.037589
     57 H25          4.3930     2.3580    10.2310 hc         1 92D       0.037589
     58 H26          3.1600    -0.0000     1.1850 ha         1 92D       0.126000
     59 H27          3.5040     3.8970     8.6260 hc         1 92D       0.037589
     60 H28          2.8080     3.3280     7.1020 hc         1 92D       0.037589
     61 H29          4.5550     3.5710     7.2410 hc         1 92D       0.037589
     62 H30          5.8040    -1.1460     4.2210 ha         1 92D       0.127000
@<TRIPOS>BOND
     1     2     1 1
     2    13    14 1
     3    13    20 1
     4    14    32 1
     5    32    15 1
     6    20    16 1
     7    20    12 1
     8    16    15 1
     9    25    12 ar
    10    25    17 ar
    11    12    11 ar
    12     1     3 ar
    13     1     9 ar
    14    17    31 ar
    15    11    10 ar
    16     3    26 ar
    17    31    10 ar
    18    10     9 1
    19     9     8 ar
    20    26    24 ar
    21     8    24 ar
    22    24    23 1
    23    23    21 1
    24    23    29 2
    25    21    30 1
    26    30    28 ar
    27    30     7 ar
    28    28     4 ar
    29     7     6 ar
    30     4     5 ar
    31     6     5 ar
    32     6    18 1
    33    19    18 1
    34    18    22 1
    35    18    27 1
    36     2    33 1
    37     2    34 1
    38     2    35 1
    39     3    36 1
    40     4    37 1
    41     5    38 1
    42     7    39 1
    43     8    40 1
    44    11    41 1
    45    13    42 1
    46    13    43 1
    47    14    44 1
    48    14    45 1
    49    15    46 1
    50    15    47 1
    51    16    48 1
    52    16    49 1
    53    17    50 1
    54    19    51 1
    55    19    52 1
    56    19    53 1
    57    21    54 1
    58    22    55 1
    59    22    56 1
    60    22    57 1
    61    26    58 1
    62    27    59 1
    63    27    60 1
    64    27    61 1
    65    28    62 1
@<TRIPOS>SUBSTRUCTURE
     1 92D         1 TEMP              0 ****  ****    0 ROOT
