@<TRIPOS>MOLECULE
92G
   21    22     1     0     0
SMALL
bcc


@<TRIPOS>ATOM
      1 O7         -0.0920   -0.2760   -0.2290 oh        1 92G     -0.497100
      2 C5          3.5670    0.1560   -0.0040 ca        1 92G     -0.069500
      3 C6          2.2380    0.0660    0.4010 ca        1 92G     -0.191500
      4 C1          1.2410   -0.1750   -0.5540 ca        1 92G      0.130100
      5 C3          2.8990   -0.2330   -2.3000 ca        1 92G     -0.069500
      6 C2          1.5680   -0.3270   -1.9120 ca        1 92G     -0.191500
      7 C4          3.9090    0.0130   -1.3560 ca        1 92G     -0.156500
      8 C8          5.2960    0.1220   -1.7930 cc        1 92G      0.429800
      9 C10         7.5230   -0.0280   -1.5880 cd        1 92G      0.598300
     10 C12         5.6830    0.5570   -3.0590 cd        1 92G     -0.270400
     11 S11         7.3420    0.5760   -3.2190 ss        1 92G     -0.105300
     12 N9          6.3530   -0.2250   -0.9510 nc        1 92G     -0.684000
     13 N13         8.8000   -0.1580   -1.0350 nh        1 92G     -0.884500
     14 HO7        -0.1750   -0.1590    0.7290 ho        1 92G      0.420000
     15 H6          1.9730    0.1810    1.4620 ha        1 92G      0.143000
     16 H3          3.1620   -0.3610   -3.3610 ha        1 92G      0.144000
     17 H2          0.7720   -0.5200   -2.6440 ha        1 92G      0.143000
     18 H12         5.0010    0.8620   -3.8500 h4        1 92G      0.182000
     19 HN13        8.7960   -0.4030   -0.0640 hn        1 92G      0.393300
     20 HN1A        9.3760   -0.7800   -1.5660 hn        1 92G      0.393300
     21 H5          4.3490    0.3430    0.7480 ha        1 92G      0.144000
@<TRIPOS>BOND
     1    1    4 1
     2    1   14 1
     3    2    3 ar
     4    2    7 ar
     5    2   21 1
     6    3    4 ar
     7    3   15 1
     8    4    6 ar
     9    5    6 ar
    10    5    7 ar
    11    5   16 1
    12    6   17 1
    13    7    8 1
    14    8   10 2
    15    8   12 1
    16    9   11 1
    17    9   12 2
    18    9   13 1
    19   10   11 1
    20   10   18 1
    21   13   19 1
    22   13   20 1
@<TRIPOS>SUBSTRUCTURE
     1 92G         1 TEMP              0 ****  ****    0 ROOT
