@<TRIPOS>MOLECULE
molecule
   71    75     1     0     0
SMALL
bcc


@<TRIPOS>ATOM
      1 CAA          0.0000     0.0000     0.0000 c3         1 92H       0.149600
      2 CAC          1.9960     0.0000     1.3710 c3         1 92H       0.128800
      3 CAD          3.5050     0.2500     1.3380 c3         1 92H       0.085000
      4 CAF          4.1240    -0.7740     3.5760 c3         1 92H       0.112000
      5 CAG          2.8190    -0.9720     4.3480 c3         1 92H      -0.095700
      6 CAH          2.6020     0.2090     5.2980 c3         1 92H      -0.074400
      7 CAI          1.3250    -0.0270     6.1090 c3         1 92H      -0.080400
      8 CAJ          1.4470    -1.3480     6.8710 c3         1 92H       0.160800
      9 CAL          1.6370    -3.7470     6.6020 c3         1 92H       0.167500
     10 CAM          0.3240    -3.9350     7.3920 c3         1 92H      -0.030600
     11 CAN          0.0010    -5.4090     7.2800 ca         1 92H      -0.091800
     12 CAO         -0.8560    -6.2000     8.0260 ca         1 92H      -0.114500
     13 CAP         -0.9910    -7.5440     7.7370 ca         1 92H      -0.128000
     14 CAQ         -0.2690    -8.1020     6.6990 ca         1 92H      -0.128000
     15 CAR          0.5860    -7.3150     5.9530 ca         1 92H      -0.114500
     16 CAS          0.7230    -5.9670     6.2410 ca         1 92H      -0.091800
     17 CAT          1.5800    -4.9070     5.5850 c3         1 92H      -0.030600
     18 CAU          2.8990    -2.2670     5.1610 c3         1 92H       0.168800
     19 CAV          1.9950    -1.1380    -0.7660 c3         1 92H       0.149600
     20 CAW          4.3550     1.6180     3.1670 c          1 92H       0.676700
     21 CAX          4.1530     2.8120     2.3210 ca         1 92H      -0.148600
     22 CAZ          3.0500     2.8850     1.4870 ca         1 92H      -0.093000
     23 CBA          2.8640     4.0220     0.6870 ca         1 92H      -0.048000
     24 CBB          3.8080     5.0790     0.7460 ca         1 92H      -0.020000
     25 CBC          4.9170     4.9750     1.6050 ca         1 92H      -0.128000
     26 CBD          5.0790     3.8690     2.3750 ca         1 92H      -0.080000
     27 CBE          1.7570     4.1330    -0.1730 ca         1 92H      -0.104000
     28 CBF          1.6070     5.2500    -0.9370 ca         1 92H      -0.132000
     29 CBG          2.5340     6.2890    -0.8790 ca         1 92H      -0.116000
     30 CBH          3.6200     6.2140    -0.0600 ca         1 92H      -0.124000
     31 NAB          1.4690     0.0000     0.0000 n3         1 92H      -0.736600
     32 NAE          4.0050     0.3990     2.7070 n          1 92H      -0.486800
     33 NAK          1.6540    -2.4470     5.9180 n3         1 92H      -0.724600
     34 OAY          4.8370     1.7320     4.2770 o          1 92H      -0.606100
     35 H1          -0.3610    -0.9700     0.3200 h1         1 92H       0.034533
     36 H2          -0.3610     0.2080    -1.0000 h1         1 92H       0.034533
     37 H3          -0.3610     0.7620     0.6800 h1         1 92H       0.034533
     38 H4           1.5130     0.7830     1.9440 h1         1 92H       0.045700
     39 H5           1.7990    -0.9600     1.8340 h1         1 92H       0.045700
     40 H6           3.7090     1.1540     0.7780 h1         1 92H       0.069700
     41 H7           3.9990    -0.5890     0.8630 h1         1 92H       0.069700
     42 H8           4.3240    -1.6510     2.9720 h1         1 92H       0.060200
     43 H9           4.9380    -0.6240     4.2750 h1         1 92H       0.060200
     44 H10          1.9890    -1.0330     3.6550 hc         1 92H       0.063700
     45 H11          3.4470     0.2900     5.9710 hc         1 92H       0.054700
     46 H12          2.5010     1.1210     4.7230 hc         1 92H       0.054700
     47 H13          0.4760    -0.0740     5.4380 hc         1 92H       0.047700
     48 H14          1.1910     0.7850     6.8140 hc         1 92H       0.047700
     49 H15          2.2910    -1.2960     7.5480 h1         1 92H       0.035200
     50 H16          0.5380    -1.5250     7.4320 h1         1 92H       0.035200
     51 H17          2.4940    -3.8550     7.2560 h1         1 92H       0.036700
     52 H18          0.4860    -3.6770     8.4320 hc         1 92H       0.060450
     53 H19         -0.4650    -3.3540     6.9290 hc         1 92H       0.060450
     54 H20         -1.4220    -5.7630     8.8390 ha         1 92H       0.127500
     55 H21         -1.6630    -8.1600     8.3230 ha         1 92H       0.129500
     56 H22         -0.3740    -9.1550     6.4700 ha         1 92H       0.129500
     57 H23          1.1520    -7.7530     5.1400 ha         1 92H       0.127500
     58 H24          1.1220    -4.5730     4.6620 hc         1 92H       0.060450
     59 H25          2.5760    -5.2910     5.4000 hc         1 92H       0.060450
     60 H26          3.7330    -2.2090     5.8490 h1         1 92H       0.034700
     61 H27          3.0360    -3.1060     4.4890 h1         1 92H       0.034700
     62 H28          1.3830    -1.2940    -1.6470 h1         1 92H       0.034533
     63 H29          1.9740    -2.0290    -0.1500 h1         1 92H       0.034533
     64 H30          3.0150    -0.9310    -1.0670 h1         1 92H       0.034533
     65 H31          2.2660     2.1420     1.5600 ha         1 92H       0.156000
     66 H32          5.6390     5.7820     1.6570 ha         1 92H       0.137000
     67 H33          5.9320     3.8000     3.0380 ha         1 92H       0.148000
     68 H34          1.0280     3.3340    -0.2290 ha         1 92H       0.139000
     69 H35          0.7520     5.3340    -1.5970 ha         1 92H       0.129000
     70 H36          2.3910     7.1670    -1.4970 ha         1 92H       0.129000
     71 H37          4.3320     7.0300    -0.0260 ha         1 92H       0.134000
@<TRIPOS>BOND
     1    29    30 ar
     2    29    28 ar
     3    30    24 ar
     4    28    27 ar
     5    24    25 ar
     6    24    23 ar
     7    25    26 ar
     8    27    23 ar
     9     7     6 1
    10     7     8 1
    11    23    22 ar
    12     6     5 1
    13     8    33 1
    14    26    21 ar
    15    22    21 ar
    16     5     4 1
    17     5    18 1
    18    21    20 1
    19    33    18 1
    20    33     9 1
    21     4    32 1
    22    17     9 1
    23    17    16 1
    24     9    10 1
    25    20    32 1
    26    20    34 2
    27    32     3 1
    28    15    16 ar
    29    15    14 ar
    30    16    11 ar
    31    10    11 1
    32    14    13 ar
    33    11    12 ar
    34     3     2 1
    35     2    31 1
    36    12    13 ar
    37    31     1 1
    38    31    19 1
    39     1    35 1
    40     1    36 1
    41     1    37 1
    42     2    38 1
    43     2    39 1
    44     3    40 1
    45     3    41 1
    46     4    42 1
    47     4    43 1
    48     5    44 1
    49     6    45 1
    50     6    46 1
    51     7    47 1
    52     7    48 1
    53     8    49 1
    54     8    50 1
    55     9    51 1
    56    10    52 1
    57    10    53 1
    58    12    54 1
    59    13    55 1
    60    14    56 1
    61    15    57 1
    62    17    58 1
    63    17    59 1
    64    18    60 1
    65    18    61 1
    66    19    62 1
    67    19    63 1
    68    19    64 1
    69    22    65 1
    70    25    66 1
    71    26    67 1
    72    27    68 1
    73    28    69 1
    74    29    70 1
    75    30    71 1
@<TRIPOS>SUBSTRUCTURE
     1 92H         1 TEMP              0 ****  ****    0 ROOT
