@<TRIPOS>MOLECULE
92J
   68    72     1     0     0
SMALL
bcc


@<TRIPOS>ATOM
      1 C1           0.0000     0.0000     0.0000 ca         1 92J       0.374600
      2 C2           1.3940     0.0000     0.0000 cp         1 92J      -0.122300
      3 C3           2.0710     0.0000     1.2220 ca         1 92J      -0.063000
      4 C11          3.4890     0.0720    -3.6540 ca         1 92J       0.646600
      5 C13          1.9280     0.9940    -2.2270 ca         1 92J       0.453200
      6 C15          4.0910    -3.2660    -3.1700 c3         1 92J       0.102800
      7 C16          5.1520    -4.2930    -3.5730 c3         1 92J       0.214400
      8 C18          6.8500    -2.9900    -2.4990 c3         1 92J       0.214400
      9 C19          5.8070    -1.9490    -2.0850 c3         1 92J       0.102800
     10 C22          3.1090    -0.6660     3.8090 c          1 92J       0.588700
     11 C23          3.7200    -0.7560     5.1520 ca         1 92J      -0.170600
     12 C24          3.1000    -0.1500     6.2460 ca         1 92J      -0.051000
     13 C25          3.6770    -0.2370     7.4970 ca         1 92J      -0.112000
     14 C26          4.8660    -0.9230     7.6670 ca         1 92J      -0.020000
     15 C27          5.4860    -1.5260     6.5870 ca         1 92J      -0.221300
     16 C28          4.9170    -1.4510     5.3320 ca         1 92J       0.029000
     17 C30          6.7810    -2.2700     6.7820 c3         1 92J       0.642200
     18 F33          7.7790    -1.6840     5.9970 f          1 92J      -0.205300
     19 C36          3.7460     1.9460    -8.0980 c3         1 92J       0.220900
     20 F32          7.1530    -2.2140     8.1290 f          1 92J      -0.205300
     21 C8           2.1470    -0.0010    -1.2780 cp         1 92J      -0.192300
     22 C35          4.0240     0.7620    -7.1680 c3         1 92J      -0.083900
     23 N14          4.7160    -1.9390    -3.0700 nh         1 92J      -0.374000
     24 F31          6.6120    -3.6060     6.4010 f          1 92J      -0.205300
     25 N6          -0.6730     0.0010     1.1320 nb         1 92J      -0.557000
     26 C34          3.8240     1.2050    -5.7160 c3         1 92J       0.167100
     27 C39          4.7400     2.3980    -5.4280 c3         1 92J      -0.083900
     28 C38          4.4350     3.5190    -6.4230 c3         1 92J       0.220900
     29 O20          4.1510     0.1260    -4.8380 os         1 92J      -0.394100
     30 O37          4.6090     3.0320    -7.7560 os         1 92J      -0.410600
     31 C5          -0.0690     0.0020     2.3040 ca         1 92J       0.380200
     32 C4           1.3180     0.0010     2.3910 ca         1 92J      -0.219700
     33 C10          3.7660    -0.9600    -2.7550 ca         1 92J      -0.137700
     34 C9           3.0860    -1.0020    -1.5470 ca         1 92J      -0.050000
     35 O29          3.6500    -1.1940     2.8580 o          1 92J      -0.636100
     36 N12          2.5930     1.0010    -3.3650 nb         1 92J      -0.665000
     37 C7          -0.7450     0.0060    -1.3090 c3         1 92J      -0.049400
     38 O17          6.2190    -4.2680    -2.6220 os         1 92J      -0.411600
     39 H1           3.1540     0.0000     1.2570 ha         1 92J       0.155000
     40 H2           1.2020     1.7740    -2.0270 h4         1 92J      -0.012900
     41 H3           3.3100    -3.2410    -3.9210 h1         1 92J       0.021450
     42 H4           3.6700    -3.5390    -2.2110 h1         1 92J       0.021450
     43 H5           5.5380    -4.0470    -4.5550 h1         1 92J       0.014200
     44 H6           4.7080    -5.2810    -3.5910 h1         1 92J       0.014200
     45 H7           7.6260    -3.0420    -1.7440 h1         1 92J       0.014200
     46 H8           7.2820    -2.7080    -3.4510 h1         1 92J       0.014200
     47 H9           5.4090    -2.2050    -1.1100 h1         1 92J       0.021450
     48 H10          6.2690    -0.9700    -2.0480 h1         1 92J       0.021450
     49 H11          2.1690     0.3880     6.1140 ha         1 92J       0.103000
     50 H12          3.1970     0.2330     8.3470 ha         1 92J       0.115000
     51 H13          5.3150    -0.9870     8.6510 ha         1 92J       0.123000
     52 H14          5.4030    -1.9230     4.4870 ha         1 92J       0.139000
     53 H16          2.7140     2.2570    -7.9860 h1         1 92J       0.007950
     54 H17          3.3380    -0.0450    -7.3970 hc         1 92J       0.032450
     55 H18          5.0440     0.4270    -7.3060 hc         1 92J       0.032450
     56 H20          2.7920     1.4980    -5.5670 h1         1 92J       0.040700
     57 H21          5.7740     2.0930    -5.5340 hc         1 92J       0.032450
     58 H22          4.5640     2.7530    -4.4200 hc         1 92J       0.032450
     59 H23          5.1120     4.3470    -6.2520 h1         1 92J       0.007950
     60 H24          3.4120     3.8490    -6.2920 h1         1 92J       0.007950
     61 H25         -0.6610     0.0020     3.2110 h4         1 92J      -0.020900
     62 H26          3.2790    -1.7900    -0.8280 ha         1 92J       0.133000
     63 H27         -0.7450     1.0080    -1.7200 hc         1 92J       0.018367
     64 H28         -0.2600    -0.6690    -2.0040 hc         1 92J       0.018367
     65 H29         -1.7660    -0.3170    -1.1460 hc         1 92J       0.018367
     66 N21          1.9500     0.0010     3.6390 ns         1 92J      -0.024100
     67 H15          3.9300     1.6490    -9.1230 h1         1 92J       0.007950
     68 H19          1.5470     0.5080     4.4030 hn         1 92J       0.173500
@<TRIPOS>BOND
     1     1     2 ar  
     2     1    25 ar  
     3     1    37 1   
     4     2     3 ar  
     5     2    21 1   
     6     3    32 ar  
     7     3    39 1   
     8     4    29 1   
     9     4    33 ar  
    10     4    36 ar  
    11     5    21 ar  
    12     5    36 ar  
    13     5    40 1   
    14     6     7 1   
    15     6    23 1   
    16     6    41 1   
    17     6    42 1   
    18     7    38 1   
    19     7    43 1   
    20     7    44 1   
    21     8     9 1   
    22     8    38 1   
    23     8    45 1   
    24     8    46 1   
    25     9    23 1   
    26     9    47 1   
    27     9    48 1   
    28    10    11 1   
    29    10    35 2   
    30    10    66 1   
    31    11    12 ar  
    32    11    16 ar  
    33    12    13 ar  
    34    12    49 1   
    35    13    14 ar  
    36    13    50 1   
    37    14    15 ar  
    38    14    51 1   
    39    15    16 ar  
    40    15    17 1   
    41    16    52 1   
    42    17    18 1   
    43    17    20 1   
    44    17    24 1   
    45    19    22 1   
    46    19    30 1   
    47    19    53 1   
    48    19    67 1   
    49    21    34 ar  
    50    22    26 1   
    51    22    54 1   
    52    22    55 1   
    53    23    33 1   
    54    25    31 ar  
    55    26    27 1   
    56    26    29 1   
    57    26    56 1   
    58    27    28 1   
    59    27    57 1   
    60    27    58 1   
    61    28    30 1   
    62    28    59 1   
    63    28    60 1   
    64    31    32 ar  
    65    31    61 1   
    66    32    66 1   
    67    33    34 ar  
    68    34    62 1   
    69    37    63 1   
    70    37    64 1   
    71    37    65 1   
    72    66    68 1   
@<TRIPOS>SUBSTRUCTURE
     1 92J         1 TEMP              0 ****  ****    0 ROOT
