@<TRIPOS>MOLECULE
molecule
   68    72     1     0     0
SMALL
bcc


@<TRIPOS>ATOM
      1 C1           0.0000     0.0000     0.0000 ca         1 92J       0.422600
      2 C2           1.3940     0.0000     0.0000 cp         1 92J      -0.140300
      3 C3           2.0710     0.0000     1.2220 ca         1 92J      -0.082000
      4 C11          3.4890     0.0720    -3.6540 ca         1 92J       0.682600
      5 C13          1.9280     0.9940    -2.2270 ca         1 92J       0.469200
      6 C15          4.0910    -3.2660    -3.1700 c3         1 92J       0.128300
      7 C16          5.1520    -4.2930    -3.5730 c3         1 92J       0.138400
      8 C18          6.8500    -2.9900    -2.4990 c3         1 92J       0.138400
      9 C19          5.8070    -1.9490    -2.0850 c3         1 92J       0.128300
     10 C22          3.1090    -0.6660     3.8090 c          1 92J       0.679700
     11 C23          3.7200    -0.7560     5.1520 ca         1 92J      -0.155600
     12 C24          3.1000    -0.1500     6.2460 ca         1 92J      -0.079000
     13 C25          3.6770    -0.2370     7.4970 ca         1 92J      -0.140000
     14 C26          4.8660    -0.9230     7.6670 ca         1 92J      -0.058000
     15 C27          5.4860    -1.5260     6.5870 ca         1 92J      -0.190300
     16 C28          4.9170    -1.4510     5.3320 ca         1 92J      -0.017000
     17 C30          6.7810    -2.2700     6.7820 c3         1 92J       0.676200
     18 F33          7.7790    -1.6840     5.9970 f          1 92J      -0.219967
     19 C36          3.7460     1.9460    -8.0980 c3         1 92J       0.140900
     20 F32          7.1530    -2.2140     8.1290 f          1 92J      -0.219967
     21 C8           2.1470    -0.0010    -1.2780 cp         1 92J      -0.201300
     22 C35          4.0240     0.7620    -7.1680 c3         1 92J      -0.127400
     23 N14          4.7160    -1.9390    -3.0700 nh         1 92J      -0.595000
     24 F31          6.6120    -3.6060     6.4010 f          1 92J      -0.219967
     25 N6          -0.6730     0.0010     1.1320 nb         1 92J      -0.673000
     26 C34          3.8240     1.2050    -5.7160 c3         1 92J       0.141100
     27 C39          4.7400     2.3980    -5.4280 c3         1 92J      -0.127400
     28 C38          4.4350     3.5190    -6.4230 c3         1 92J       0.140900
     29 O20          4.1510     0.1260    -4.8380 os         1 92J      -0.409100
     30 O37          4.6090     3.0320    -7.7560 os         1 92J      -0.422600
     31 C5          -0.0690     0.0020     2.3040 ca         1 92J       0.397200
     32 C4           1.3180     0.0010     2.3910 ca         1 92J      -0.077700
     33 C10          3.7660    -0.9600    -2.7550 ca         1 92J      -0.057700
     34 C9           3.0860    -1.0020    -1.5470 ca         1 92J      -0.079000
     35 O29          3.6500    -1.1940     2.8580 o          1 92J      -0.592100
     36 N12          2.5930     1.0010    -3.3650 nb         1 92J      -0.774000
     37 C7          -0.7450     0.0060    -1.3090 c3         1 92J      -0.140400
     38 O17          6.2190    -4.2680    -2.6220 os         1 92J      -0.424600
     39 H1           3.1540     0.0000     1.2570 ha         1 92J       0.176000
     40 H2           1.2020     1.7740    -2.0270 h4         1 92J       0.029100
     41 H3           3.3100    -3.2410    -3.9210 h1         1 92J       0.047200
     42 H4           3.6700    -3.5390    -2.2110 h1         1 92J       0.047200
     43 H5           5.5380    -4.0470    -4.5550 h1         1 92J       0.055450
     44 H6           4.7080    -5.2810    -3.5910 h1         1 92J       0.055450
     45 H7           7.6260    -3.0420    -1.7440 h1         1 92J       0.055450
     46 H8           7.2820    -2.7080    -3.4510 h1         1 92J       0.055450
     47 H9           5.4090    -2.2050    -1.1100 h1         1 92J       0.047200
     48 H10          6.2690    -0.9700    -2.0480 h1         1 92J       0.047200
     49 H11          2.1690     0.3880     6.1140 ha         1 92J       0.130000
     50 H12          3.1970     0.2330     8.3470 ha         1 92J       0.145000
     51 H13          5.3150    -0.9870     8.6510 ha         1 92J       0.156000
     52 H14          5.4030    -1.9230     4.4870 ha         1 92J       0.172000
     53 H16          2.7140     2.2570    -7.9860 h1         1 92J       0.048950
     54 H17          3.3380    -0.0450    -7.3970 hc         1 92J       0.062450
     55 H18          5.0440     0.4270    -7.3060 hc         1 92J       0.062450
     56 H20          2.7920     1.4980    -5.5670 h1         1 92J       0.070700
     57 H21          5.7740     2.0930    -5.5340 hc         1 92J       0.062450
     58 H22          4.5640     2.7530    -4.4200 hc         1 92J       0.062450
     59 H23          5.1120     4.3470    -6.2520 h1         1 92J       0.048950
     60 H24          3.4120     3.8490    -6.2920 h1         1 92J       0.048950
     61 H25         -0.6610     0.0020     3.2110 h4         1 92J       0.021100
     62 H26          3.2790    -1.7900    -0.8280 ha         1 92J       0.160000
     63 H27         -0.7450     1.0080    -1.7200 hc         1 92J       0.054700
     64 H28         -0.2600    -0.6690    -2.0040 hc         1 92J       0.054700
     65 H29         -1.7660    -0.3170    -1.1460 hc         1 92J       0.054700
     66 N21          1.9500     0.0010     3.6390 ns         1 92J      -0.471100
     67 H15          3.9300     1.6490    -9.1230 h1         1 92J       0.048950
     68 H19          1.5470     0.5080     4.4030 hn         1 92J       0.327500
@<TRIPOS>BOND
     1     9     8 1
     2     9    23 1
     3     8    38 1
     4    27    28 1
     5    27    26 1
     6    37     1 1
     7    28    30 1
     8    38     7 1
     9    29    26 1
    10    29     4 1
    11    26    22 1
    12    23    33 1
    13    23     6 1
    14     4    33 ar
    15     4    36 ar
    16    33    34 ar
    17    36     5 ar
    18     1    25 ar
    19     1     2 ar
    20    34    21 ar
    21     6     7 1
    22    30    19 1
    23     5    21 ar
    24    21     2 1
    25    25    31 ar
    26    22    19 1
    27     2     3 ar
    28    31    32 ar
    29     3    32 ar
    30    32    66 1
    31    66    10 1
    32    35    10 2
    33    10    11 1
    34    11    12 ar
    35    11    16 ar
    36    12    13 ar
    37    16    15 ar
    38    13    14 ar
    39    15    14 ar
    40    15    17 1
    41    18    17 1
    42    17    20 1
    43    17    24 1
    44     3    39 1
    45     5    40 1
    46     6    41 1
    47     6    42 1
    48     7    43 1
    49     7    44 1
    50     8    45 1
    51     8    46 1
    52     9    47 1
    53     9    48 1
    54    12    49 1
    55    13    50 1
    56    14    51 1
    57    16    52 1
    58    19    67 1
    59    19    53 1
    60    22    54 1
    61    22    55 1
    62    66    68 1
    63    26    56 1
    64    27    57 1
    65    27    58 1
    66    28    59 1
    67    28    60 1
    68    31    61 1
    69    34    62 1
    70    37    63 1
    71    37    64 1
    72    37    65 1
@<TRIPOS>SUBSTRUCTURE
     1 92J         1 TEMP              0 ****  ****    0 ROOT
