@<TRIPOS>MOLECULE
92K
   18    18     1     0     0
SMALL
bcc


@<TRIPOS>ATOM
      1 O10          0.0000     0.0000     0.0000 o          1 92K      -0.862800
      2 O11          1.9520     0.0000     1.0500 o          1 92K      -0.862800
      3 C01          5.5520    -0.9570    -0.2080 ca         1 92K      -0.176000
      4 C02          6.2460    -0.8870    -1.4070 ca         1 92K      -0.080000
      5 C03          5.5990    -0.5280    -2.5720 ca         1 92K      -0.200000
      6 C04          4.2410    -0.2340    -2.5510 ca         1 92K       0.076600
      7 C05          3.5330    -0.3030    -1.3370 ca         1 92K      -0.203600
      8 C06          4.2050    -0.6730    -0.1650 ca         1 92K      -0.041000
      9 C07          2.0920     0.0000    -1.2920 c          1 92K       0.532700
     10 O08          1.4910     0.1140    -2.3410 o          1 92K      -0.582100
     11 C09          1.3460     0.0000     0.0000 c          1 92K       0.907600
     12 H2           6.0710    -1.2410     0.6990 ha         1 92K       0.091000
     13 H3           7.3050    -1.1130    -1.4290 ha         1 92K       0.078000
     14 H4           6.1500    -0.4760    -3.5030 ha         1 92K       0.092000
     15 H5           3.6680    -0.7290     0.7740 ha         1 92K       0.183000
     16 H6           3.6620    -0.4520    -4.5330 hn         1 92K       0.267800
     17 H7           3.0990     0.9990    -3.7700 hn         1 92K       0.267800
     18 N12          3.5890     0.1280    -3.7200 nv         1 92K      -0.489200
@<TRIPOS>BOND
     1     1    11 1   
     2     2    11 1   
     3     3     4 ar  
     4     3     8 ar  
     5     3    12 1   
     6     4     5 ar  
     7     4    13 1   
     8     5     6 ar  
     9     5    14 1   
    10     6     7 ar  
    11     6    18 1   
    12     7     8 ar  
    13     7     9 1   
    14     8    15 1   
    15     9    10 2   
    16     9    11 1   
    17    16    18 1   
    18    17    18 1   
@<TRIPOS>SUBSTRUCTURE
     1 92K         1 TEMP              0 ****  ****    0 ROOT
