@<TRIPOS>MOLECULE
molecule
   18    18     1     0     0
SMALL
bcc


@<TRIPOS>ATOM
      1 O10          0.0000     0.0000     0.0000 o          1 92K      -0.814300
      2 O11          1.9520     0.0000     1.0500 o          1 92K      -0.814300
      3 C01          5.5520    -0.9570    -0.2080 ca         1 92K      -0.198000
      4 C02          6.2460    -0.8870    -1.4070 ca         1 92K      -0.108000
      5 C03          5.5990    -0.5280    -2.5720 ca         1 92K      -0.217000
      6 C04          4.2410    -0.2340    -2.5510 ca         1 92K       0.213600
      7 C05          3.5330    -0.3030    -1.3370 ca         1 92K      -0.198600
      8 C06          4.2050    -0.6730    -0.1650 ca         1 92K      -0.054000
      9 C07          2.0920     0.0000    -1.2920 c          1 92K       0.479700
     10 O08          1.4910     0.1140    -2.3410 o          1 92K      -0.545100
     11 C09          1.3460     0.0000     0.0000 c          1 92K       0.817600
     12 H2           6.0710    -1.2410     0.6990 ha         1 92K       0.113000
     13 H3           7.3050    -1.1130    -1.4290 ha         1 92K       0.103000
     14 H4           6.1500    -0.4760    -3.5030 ha         1 92K       0.111000
     15 H5           3.6680    -0.7290     0.7740 ha         1 92K       0.203000
     16 H6           3.6620    -0.4520    -4.5330 hn         1 92K       0.425800
     17 H7           3.0990     0.9990    -3.7700 hn         1 92K       0.425800
     18 N12          3.5890     0.1280    -3.7200 nv         1 92K      -0.942200
@<TRIPOS>BOND
     1     2    11 1
     2     1    11 1
     3    11     9 1
     4    10     9 2
     5     9     7 1
     6     7     8 ar
     7     7     6 ar
     8    18     6 1
     9     8     3 ar
    10     6     5 ar
    11     3     4 ar
    12     5     4 ar
    13     3    12 1
    14     4    13 1
    15     5    14 1
    16     8    15 1
    17    18    16 1
    18    18    17 1
@<TRIPOS>SUBSTRUCTURE
     1 92K         1 TEMP              0 ****  ****    0 ROOT
