@<TRIPOS>MOLECULE
molecule
   36    37     1     0     0
SMALL
bcc


@<TRIPOS>ATOM
      1 C10          0.0000     0.0000     0.0000 ca         1 92L       0.010000
      2 C13          1.3620    -0.0000     2.4190 ca         1 92L      -0.120200
      3 C1           4.2660     3.4590     2.6610 c3         1 92L      -0.173400
      4 C2           5.6770     3.5080     2.0690 c3         1 92L      -0.078400
      5 C3           6.4140     2.2130     2.4170 c3         1 92L      -0.173400
      6 C4           5.6490     1.0370     1.8680 c          1 92L       0.585300
      7 C5           4.2420     1.1000     1.7330 ce         1 92L      -0.298400
      8 C6           3.5320     2.2660     2.1080 c          1 92L       0.585300
      9 C7           3.5450    -0.0010     1.2240 cf         1 92L       0.267900
     10 C8           2.0740     0.0000     1.2140 ca         1 92L       0.022200
     11 C9           1.3780     0.0000     0.0000 ca         1 92L      -0.138000
     12 C11         -0.6970     0.0010     1.1960 ca         1 92L      -0.296500
     13 C12         -0.0160    -0.0000     2.4010 ca         1 92L       0.032000
     14 O14          2.3250     2.3030     1.9840 o          1 92L      -0.536100
     15 O16          4.2210    -1.0610     0.7430 oh         1 92L      -0.468100
     16 N17          2.0880    -0.0000     3.7090 no         1 92L       0.293200
     17 O18          3.3010    -0.1120     3.7260 o          1 92L      -0.196500
     18 O19          1.4720     0.1110     4.7550 o          1 92L      -0.196500
     19 S20         -2.4580     0.0010     1.1840 sy         1 92L       1.191300
     20 O21         -2.8160     0.6060     2.4190 o          1 92L      -0.605800
     21 O22         -2.8000     0.6060    -0.0550 o          1 92L      -0.605800
     22 C23         -2.9120    -1.7550     1.1810 c3         1 92L      -0.226300
     23 H1          -0.5400     0.0000    -0.9390 ha         1 92L       0.164000
     24 H2           4.3310     3.3740     3.7390 hc         1 92L       0.078700
     25 H3           3.7330     4.3640     2.3960 hc         1 92L       0.078700
     26 H4           5.6130     3.6080     0.9920 hc         1 92L       0.051700
     27 H5           6.2140     4.3520     2.4840 hc         1 92L       0.051700
     28 H6           7.4050     2.2340     1.9800 hc         1 92L       0.078700
     29 H7           6.4910     2.1210     3.4940 hc         1 92L       0.078700
     30 H10          1.9220    -0.0000    -0.9370 ha         1 92L       0.148000
     31 H11         -0.5680    -0.0000     3.3330 ha         1 92L       0.187000
     32 H12          4.1940    -1.0500    -0.1990 ho         1 92L       0.440000
     33 H13         -3.9810    -1.8520     1.0340 h1         1 92L       0.101700
     34 H14         -2.3900    -2.2610     0.3780 h1         1 92L       0.101700
     35 H15         -2.6360    -2.2010     2.1290 h1         1 92L       0.101700
     36 O15          6.2420     0.0310     1.5390 o          1 92L      -0.536100
@<TRIPOS>BOND
     1    22    19 1
     2    20    19 2
     3    19    21 2
     4    19    12 1
     5     1    12 ar
     6     1    11 ar
     7    12    13 ar
     8    11    10 ar
     9    13     2 ar
    10    15     9 1
    11    10     2 ar
    12    10     9 1
    13     2    16 1
    14     9     7 2
    15    16    18 1
    16    16    17 1
    17    36     6 2
    18     7     6 1
    19     7     8 1
    20    14     8 2
    21     6     5 1
    22     8     3 1
    23     5     4 1
    24     4     3 1
    25     1    23 1
    26     3    24 1
    27     3    25 1
    28     4    26 1
    29     4    27 1
    30     5    28 1
    31     5    29 1
    32    11    30 1
    33    13    31 1
    34    15    32 1
    35    22    33 1
    36    22    34 1
    37    22    35 1
@<TRIPOS>SUBSTRUCTURE
     1 92L         1 TEMP              0 ****  ****    0 ROOT
