@<TRIPOS>MOLECULE
92L
   36    37     1     0     0
SMALL
bcc


@<TRIPOS>ATOM
      1 C10          0.0000     0.0000     0.0000 ca         1 92L       0.062000
      2 C13          1.3620    -0.0000     2.4190 ca         1 92L      -0.419200
      3 C1           4.2660     3.4590     2.6610 c3         1 92L      -0.114900
      4 C2           5.6770     3.5080     2.0690 c3         1 92L      -0.014400
      5 C3           6.4140     2.2130     2.4170 c3         1 92L      -0.114900
      6 C4           5.6490     1.0370     1.8680 c          1 92L       0.641300
      7 C5           4.2420     1.1000     1.7330 ce         1 92L      -0.337400
      8 C6           3.5320     2.2660     2.1080 c          1 92L       0.641300
      9 C7           3.5450    -0.0010     1.2240 cf         1 92L       0.308900
     10 C8           2.0740     0.0000     1.2140 ca         1 92L       0.047200
     11 C9           1.3780     0.0000     0.0000 ca         1 92L      -0.130000
     12 C11         -0.6970     0.0010     1.1960 ca         1 92L      -0.172500
     13 C12         -0.0160    -0.0000     2.4010 ca         1 92L       0.098000
     14 O14          2.3250     2.3030     1.9840 o          1 92L      -0.580100
     15 O16          4.2210    -1.0610     0.7430 oh         1 92L      -0.451100
     16 N17          2.0880    -0.0000     3.7090 no         1 92L       1.047200
     17 O18          3.3010    -0.1120     3.7260 o          1 92L      -0.446000
     18 O19          1.4720     0.1110     4.7550 o          1 92L      -0.446000
     19 S20         -2.4580     0.0010     1.1840 sy         1 92L       0.879300
     20 O21         -2.8160     0.6060     2.4190 o          1 92L      -0.578800
     21 O22         -2.8000     0.6060    -0.0550 o          1 92L      -0.578800
     22 C23         -2.9120    -1.7550     1.1810 c3         1 92L       0.029700
     23 H1          -0.5400     0.0000    -0.9390 ha         1 92L       0.128000
     24 H2           3.7330     4.3640     2.3960 hc         1 92L       0.044450
     25 H3           4.3310     3.3740     3.7390 hc         1 92L       0.044450
     26 H4           6.2140     4.3520     2.4840 hc         1 92L       0.019200
     27 H5           5.6130     3.6080     0.9920 hc         1 92L       0.019200
     28 H6           6.4910     2.1210     3.4940 hc         1 92L       0.044450
     29 H7           7.4050     2.2340     1.9800 hc         1 92L       0.044450
     30 H10          1.9220    -0.0000    -0.9370 ha         1 92L       0.114000
     31 H11         -0.5680    -0.0000     3.3330 ha         1 92L       0.151000
     32 H12          4.1940    -1.0500    -0.1990 ho         1 92L       0.417000
     33 H13         -2.6240    -2.2010     0.2370 h1         1 92L       0.061367
     34 H14         -3.9830    -1.8520     1.3140 h1         1 92L       0.061367
     35 H15         -2.4000    -2.2620     1.9900 h1         1 92L       0.061367
     36 O15          6.2420     0.0310     1.5390 o          1 92L      -0.580100
@<TRIPOS>BOND
     1     1    11 ar  
     2     1    12 ar  
     3     1    23 1   
     4     2    10 ar  
     5     2    13 ar  
     6     2    16 1   
     7     3     4 1   
     8     3     8 1   
     9     3    24 1   
    10     3    25 1   
    11     4     5 1   
    12     4    26 1   
    13     4    27 1   
    14     5     6 1   
    15     5    28 1   
    16     5    29 1   
    17     6     7 1   
    18     6    36 2   
    19     7     8 1   
    20     7     9 2   
    21     8    14 2   
    22     9    10 1   
    23     9    15 1   
    24    10    11 ar  
    25    11    30 1   
    26    12    13 ar  
    27    12    19 1   
    28    13    31 1   
    29    15    32 1   
    30    16    17 1   
    31    16    18 1   
    32    19    20 2   
    33    19    21 2   
    34    19    22 1   
    35    22    33 1   
    36    22    34 1   
    37    22    35 1   
@<TRIPOS>SUBSTRUCTURE
     1 92L         1 TEMP              0 ****  ****    0 ROOT
