@<TRIPOS>MOLECULE
92M
   68    72     1     0     0
SMALL
bcc


@<TRIPOS>ATOM
      1 C4           0.0000     0.0000     0.0000 ca         1 92M       0.564200
      2 C5           1.4000     0.0000     0.0000 ca         1 92M      -0.397000
      3 C6           2.0680     0.0000     1.2090 ca         1 92M       0.485200
      4 N1           1.3590     0.0110     2.3310 nb         1 92M      -0.695000
      5 N3          -0.6420     0.0200     1.1620 nb         1 92M      -0.715000
      6 CAT          3.2620    -1.2910     8.1770 c3         1 92M       0.141300
      7 CAU          3.9060    -1.5210     9.5460 c3         1 92M      -0.047400
      8 CAV          4.2970    -0.1710    10.1540 c3         1 92M       0.189100
      9 OAW          4.8470    -0.3770    11.4570 oh         1 92M      -0.581800
     10 CAX          3.0510     0.7110    10.2590 c3         1 92M      -0.047400
     11 CAY          2.4310     0.8780     8.8700 c3         1 92M       0.141300
     12 NAS          2.0740    -0.4410     8.3310 nh         1 92M      -0.360000
     13 CAR          1.3850    -0.3180     7.1180 ca         1 92M       0.052600
     14 CAZ          0.2290     0.4480     7.0530 ca         1 92M      -0.224000
     15 CBA         -0.4520     0.5700     5.8520 ca         1 92M       0.148100
     16 OBB         -1.5840     1.3200     5.7860 os         1 92M      -0.316900
     17 CBC         -2.0140     1.9560     6.9910 c3         1 92M       0.248700
     18 CAQ          1.8610    -0.9580     5.9820 ca         1 92M      -0.191000
     19 CAP          1.1840    -0.8370     4.7840 ca         1 92M      -0.043000
     20 CAO          0.0250    -0.0770     4.7150 ca         1 92M      -0.066400
     21 C2           0.0350     0.0240     2.3020 ca         1 92M       0.711900
     22 NBG          2.0950     0.0190    -1.2190 n          1 92M       0.020000
     23 CBH          3.1910    -0.9180    -1.4750 c3         1 92M       0.078300
     24 CAB          1.7250     0.9250    -2.1510 c          1 92M       0.621500
     25 OAA          2.2570     0.9330    -3.2420 o          1 92M      -0.673500
     26 CAC          0.6480     1.9230    -1.8240 c3         1 92M      -0.114400
     27 CAD         -0.7270     1.2620    -1.8670 c3         1 92M       0.163800
     28 NAE         -0.6900    -0.0410    -1.1980 nh         1 92M      -0.483300
     29 CAF         -2.0470    -0.5720    -1.0050 c3         1 92M       0.122500
     30 CAG         -1.9920    -1.9640    -0.3400 c3         1 92M      -0.030400
     31 CAH         -3.1050    -2.8050    -0.9900 c3         1 92M      -0.021900
     32 CAI         -3.7970    -1.8950    -2.0250 c3         1 92M      -0.021900
     33 CAJ         -2.7260    -0.8310    -2.3720 c3         1 92M      -0.030400
     34 H6           3.1510    -0.0110     1.2410 h4         1 92M      -0.009900
     35 HATA         2.9690    -2.2440     7.7520 h1         1 92M       0.018700
     36 HAU          4.7920    -2.1340     9.4280 hc         1 92M       0.029950
     37 HAUA         3.2000    -2.0200    10.1980 hc         1 92M       0.029950
     38 HAV          5.0290     0.3120     9.5190 h1         1 92M      -0.003300
     39 HOAW         5.7300    -0.0470    11.4810 ho         1 92M       0.388000
     40 HAX          2.3330     0.2430    10.9210 hc         1 92M       0.029950
     41 HAXA         3.3300     1.6830    10.6480 hc         1 92M       0.029950
     42 HAY          1.5390     1.4890     8.9450 h1         1 92M       0.018700
     43 HAYA         3.1470     1.3540     8.2110 h1         1 92M       0.018700
     44 HAZ         -0.1750     0.8960     7.9520 ha         1 92M       0.134000
     45 HBC         -1.2460     2.6400     7.3330 h1         1 92M      -0.000967
     46 HBCA        -2.9290     2.5040     6.8040 h1         1 92M      -0.000967
     47 HBCB        -2.1920     1.2050     7.7520 h1         1 92M      -0.000967
     48 HAQ          2.7660    -1.5520     6.0340 ha         1 92M       0.125000
     49 HAP          1.5550    -1.3390     3.8980 ha         1 92M       0.136000
     50 HBH          3.1440    -1.7330    -0.7630 h1         1 92M       0.015033
     51 HBHA         4.1390    -0.4030    -1.3710 h1         1 92M       0.015033
     52 HBHB         3.1030    -1.3120    -2.4800 h1         1 92M       0.015033
     53 HAC          0.8200     2.3210    -0.8310 hc         1 92M       0.040700
     54 HACA         0.6770     2.7290    -2.5470 hc         1 92M       0.040700
     55 HAD         -1.4320     1.8980    -1.3460 h1         1 92M       0.027200
     56 HADA        -1.0050     1.1100    -2.9030 h1         1 92M       0.027200
     57 HAF         -2.6450     0.1070    -0.4090 h1         1 92M       0.035700
     58 HAG         -1.0280    -2.4230    -0.5210 hc         1 92M       0.024700
     59 HAGA        -2.1720    -1.8720     0.7240 hc         1 92M       0.024700
     60 HAH         -2.6760    -3.6680    -1.4840 hc         1 92M       0.013950
     61 HAHA        -3.8190    -3.1180    -0.2370 hc         1 92M       0.013950
     62 HAI         -4.6710    -1.4240    -1.5900 hc         1 92M       0.013950
     63 HAIA        -4.0650    -2.4630    -2.9080 hc         1 92M       0.013950
     64 HAJ         -3.1930     0.0740    -2.7440 hc         1 92M       0.024700
     65 HAJA        -2.0130    -1.2250    -3.0860 hc         1 92M       0.024700
     66 NAN         -0.6630     0.0440     3.4980 nu         1 92M      -0.260300
     67 HAT          3.9730    -0.8010     7.5230 h1         1 92M       0.018700
     68 HNAN        -1.6610     0.1250     3.4940 hn         1 92M       0.298800
@<TRIPOS>BOND
     1     1     2 ar  
     2     1     5 ar  
     3     1    28 1   
     4     2     3 ar  
     5     2    22 1   
     6     3     4 ar  
     7     3    34 1   
     8     4    21 ar  
     9     5    21 ar  
    10     6     7 1   
    11     6    12 1   
    12     6    35 1   
    13     6    67 1   
    14     7     8 1   
    15     7    36 1   
    16     7    37 1   
    17     8     9 1   
    18     8    10 1   
    19     8    38 1   
    20     9    39 1   
    21    10    11 1   
    22    10    40 1   
    23    10    41 1   
    24    11    12 1   
    25    11    42 1   
    26    11    43 1   
    27    12    13 1   
    28    13    14 ar  
    29    13    18 ar  
    30    14    15 ar  
    31    14    44 1   
    32    15    16 1   
    33    15    20 ar  
    34    16    17 1   
    35    17    45 1   
    36    17    46 1   
    37    17    47 1   
    38    18    19 ar  
    39    18    48 1   
    40    19    20 ar  
    41    19    49 1   
    42    20    66 1   
    43    21    66 1   
    44    22    23 1   
    45    22    24 1   
    46    23    50 1   
    47    23    51 1   
    48    23    52 1   
    49    24    25 2   
    50    24    26 1   
    51    26    27 1   
    52    26    53 1   
    53    26    54 1   
    54    27    28 1   
    55    27    55 1   
    56    27    56 1   
    57    28    29 1   
    58    29    30 1   
    59    29    33 1   
    60    29    57 1   
    61    30    31 1   
    62    30    58 1   
    63    30    59 1   
    64    31    32 1   
    65    31    60 1   
    66    31    61 1   
    67    32    33 1   
    68    32    62 1   
    69    32    63 1   
    70    33    64 1   
    71    33    65 1   
    72    66    68 1   
@<TRIPOS>SUBSTRUCTURE
     1 92M         1 TEMP              0 ****  ****    0 ROOT
