@<TRIPOS>MOLECULE
molecule
   68    72     1     0     0
SMALL
bcc


@<TRIPOS>ATOM
      1 C4           0.0000     0.0000     0.0000 ca         1 92M       0.673200
      2 C5           1.4000     0.0000     0.0000 ca         1 92M      -0.256000
      3 C6           2.0680     0.0000     1.2090 ca         1 92M       0.485200
      4 N1           1.3590     0.0110     2.3310 nb         1 92M      -0.793000
      5 N3          -0.6420     0.0200     1.1620 nb         1 92M      -0.822000
      6 CAT          3.2620    -1.2910     8.1770 c3         1 92M       0.166300
      7 CAU          3.9060    -1.5210     9.5460 c3         1 92M      -0.092900
      8 CAV          4.2970    -0.1710    10.1540 c3         1 92M       0.145100
      9 OAW          4.8470    -0.3770    11.4570 oh         1 92M      -0.602800
     10 CAX          3.0510     0.7110    10.2590 c3         1 92M      -0.092900
     11 CAY          2.4310     0.8780     8.8700 c3         1 92M       0.166300
     12 NAS          2.0740    -0.4410     8.3310 nh         1 92M      -0.595000
     13 CAR          1.3850    -0.3180     7.1180 ca         1 92M       0.125600
     14 CAZ          0.2290     0.4480     7.0530 ca         1 92M      -0.230000
     15 CBA         -0.4520     0.5700     5.8520 ca         1 92M       0.129100
     16 OBB         -1.5840     1.3200     5.7860 os         1 92M      -0.335900
     17 CBC         -2.0140     1.9560     6.9910 c3         1 92M       0.130700
     18 CAQ          1.8610    -0.9580     5.9820 ca         1 92M      -0.205000
     19 CAP          1.1840    -0.8370     4.7840 ca         1 92M      -0.070000
     20 CAO          0.0250    -0.0770     4.7150 ca         1 92M       0.107600
     21 C2           0.0350     0.0240     2.3020 ca         1 92M       0.942900
     22 NBG          2.0950     0.0190    -1.2190 n          1 92M      -0.373000
     23 CBH          3.1910    -0.9180    -1.4750 c3         1 92M       0.106300
     24 CAB          1.7250     0.9250    -2.1510 c          1 92M       0.716500
     25 OAA          2.2570     0.9330    -3.2420 o          1 92M      -0.633500
     26 CAC          0.6480     1.9230    -1.8240 c3         1 92M      -0.168400
     27 CAD         -0.7270     1.2620    -1.8670 c3         1 92M       0.182800
     28 NAE         -0.6900    -0.0410    -1.1980 nh         1 92M      -0.703300
     29 CAF         -2.0470    -0.5720    -1.0050 c3         1 92M       0.176500
     30 CAG         -1.9920    -1.9640    -0.3400 c3         1 92M      -0.080400
     31 CAH         -3.1050    -2.8050    -0.9900 c3         1 92M      -0.082900
     32 CAI         -3.7970    -1.8950    -2.0250 c3         1 92M      -0.082900
     33 CAJ         -2.7260    -0.8310    -2.3720 c3         1 92M      -0.080400
     34 H6           3.1510    -0.0110     1.2410 h4         1 92M       0.037100
     35 HATA         2.9690    -2.2440     7.7520 h1         1 92M       0.043700
     36 HAU          4.7920    -2.1340     9.4280 hc         1 92M       0.060450
     37 HAUA         3.2000    -2.0200    10.1980 hc         1 92M       0.060450
     38 HAV          5.0290     0.3120     9.5190 h1         1 92M       0.027700
     39 HOAW         5.7300    -0.0470    11.4810 ho         1 92M       0.401000
     40 HAX          2.3330     0.2430    10.9210 hc         1 92M       0.060450
     41 HAXA         3.3300     1.6830    10.6480 hc         1 92M       0.060450
     42 HAY          1.5390     1.4890     8.9450 h1         1 92M       0.043700
     43 HAYA         3.1470     1.3540     8.2110 h1         1 92M       0.043700
     44 HAZ         -0.1750     0.8960     7.9520 ha         1 92M       0.146000
     45 HBC         -1.2460     2.6400     7.3330 h1         1 92M       0.042700
     46 HBCA        -2.9290     2.5040     6.8040 h1         1 92M       0.042700
     47 HBCB        -2.1920     1.2050     7.7520 h1         1 92M       0.042700
     48 HAQ          2.7660    -1.5520     6.0340 ha         1 92M       0.139000
     49 HAP          1.5550    -1.3390     3.8980 ha         1 92M       0.163000
     50 HBH          3.1440    -1.7330    -0.7630 h1         1 92M       0.046367
     51 HBHA         4.1390    -0.4030    -1.3710 h1         1 92M       0.046367
     52 HBHB         3.1030    -1.3120    -2.4800 h1         1 92M       0.046367
     53 HAC          0.8200     2.3210    -0.8310 hc         1 92M       0.074200
     54 HACA         0.6770     2.7290    -2.5470 hc         1 92M       0.074200
     55 HAD         -1.4320     1.8980    -1.3460 h1         1 92M       0.057700
     56 HADA        -1.0050     1.1100    -2.9030 h1         1 92M       0.057700
     57 HAF         -2.6450     0.1070    -0.4090 h1         1 92M       0.055700
     58 HAG         -1.0280    -2.4230    -0.5210 hc         1 92M       0.054450
     59 HAGA        -2.1720    -1.8720     0.7240 hc         1 92M       0.054450
     60 HAH         -2.6760    -3.6680    -1.4840 hc         1 92M       0.043950
     61 HAHA        -3.8190    -3.1180    -0.2370 hc         1 92M       0.043950
     62 HAI         -4.6710    -1.4240    -1.5900 hc         1 92M       0.043950
     63 HAIA        -4.0650    -2.4630    -2.9080 hc         1 92M       0.043950
     64 HAJ         -3.1930     0.0740    -2.7440 hc         1 92M       0.054450
     65 HAJA        -2.0130    -1.2250    -3.0860 hc         1 92M       0.054450
     66 NAN         -0.6630     0.0440     3.4980 nu         1 92M      -0.740300
     67 HAT          3.9730    -0.8010     7.5230 h1         1 92M       0.043700
     68 HNAN        -1.6610     0.1250     3.4940 hn         1 92M       0.474800
@<TRIPOS>BOND
     1     1     2 ar
     2     1     5 ar
     3     1    28 1
     4     2     3 ar
     5     2    22 1
     6     3     4 ar
     7     4    21 ar
     8     5    21 ar
     9     6     7 1
    10     6    12 1
    11     7     8 1
    12     8     9 1
    13     8    10 1
    14    10    11 1
    15    11    12 1
    16    12    13 1
    17    13    14 ar
    18    13    18 ar
    19    14    15 ar
    20    15    16 1
    21    15    20 ar
    22    16    17 1
    23    18    19 ar
    24    19    20 ar
    25    20    66 1
    26    66    21 1
    27    22    23 1
    28    22    24 1
    29    24    25 2
    30    24    26 1
    31    26    27 1
    32    27    28 1
    33    28    29 1
    34    29    30 1
    35    29    33 1
    36    30    31 1
    37    31    32 1
    38    32    33 1
    39     3    34 1
    40     6    67 1
    41     6    35 1
    42     7    36 1
    43     7    37 1
    44     8    38 1
    45     9    39 1
    46    10    40 1
    47    10    41 1
    48    11    42 1
    49    11    43 1
    50    14    44 1
    51    17    45 1
    52    17    46 1
    53    17    47 1
    54    18    48 1
    55    19    49 1
    56    66    68 1
    57    23    50 1
    58    23    51 1
    59    23    52 1
    60    26    53 1
    61    26    54 1
    62    27    55 1
    63    27    56 1
    64    29    57 1
    65    30    58 1
    66    30    59 1
    67    31    60 1
    68    31    61 1
    69    32    62 1
    70    32    63 1
    71    33    64 1
    72    33    65 1
@<TRIPOS>SUBSTRUCTURE
     1 92M         1 TEMP              0 ****  ****    0 ROOT
