@<TRIPOS>MOLECULE
molecule
   37    39     1     0     0
SMALL
bcc


@<TRIPOS>ATOM
      1 C1           0.0000     0.0000     0.0000 c3         1 92O      -0.090100
      2 N1           1.9270     0.0000     3.0850 na         1 92O      -0.181400
      3 C2           1.5300     0.0000     0.0000 c3         1 92O      -0.036100
      4 N2           3.5140     2.6630     8.3940 n7         1 92O      -0.820200
      5 C3           2.0310     1.1590     0.8230 ca         1 92O      -0.096300
      6 C4           2.3600     2.3500     0.2120 ca         1 92O      -0.109000
      7 C5           2.8230     3.4240     0.9590 ca         1 92O      -0.156000
      8 C6           2.9620     3.3190     2.3150 ca         1 92O      -0.083000
      9 C7           2.6350     2.1220     2.9540 ca         1 92O      -0.095800
     10 C8           2.6600     1.6710     4.3470 cc         1 92O      -0.149400
     11 C9           2.2280     0.4010     4.3580 cd         1 92O      -0.097100
     12 C10          2.1650     1.0290     2.2010 ca         1 92O      -0.034200
     13 C11          3.0910     2.4810     5.5440 c3         1 92O       0.006500
     14 C12          1.9250     2.5940     6.5310 c3         1 92O      -0.071400
     15 C13          2.3860     3.3650     7.7700 c3         1 92O       0.156800
     16 C14          4.6620     2.5840     7.4810 c3         1 92O       0.156800
     17 C15          4.2690     1.7890     6.2340 c3         1 92O      -0.071400
     18 H11C        -0.3610    -0.5950     0.8300 hc         1 92O       0.035700
     19 H12C        -0.3610     1.0160     0.1000 hc         1 92O       0.035700
     20 H13C        -0.3610    -0.4220    -0.9300 hc         1 92O       0.035700
     21 H21C         1.8910     0.0960    -1.0170 hc         1 92O       0.043700
     22 H22C         1.8910    -0.9280     0.4260 hc         1 92O       0.043700
     23 H9           2.1310    -0.2160     5.2430 h4         1 92O       0.168000
     24 H2           3.7850     3.1430     9.2290 hn         1 92O       0.350800
     25 H131         2.6990     4.3600     7.4780 h1         1 92O       0.030200
     26 H132         1.5680     3.4310     8.4770 h1         1 92O       0.030200
     27 H141         5.4850     2.0860     7.9810 h1         1 92O       0.030200
     28 H142         4.9600     3.5840     7.1910 h1         1 92O       0.030200
     29 H4           2.2550     2.4490    -0.8610 ha         1 92O       0.130000
     30 H5           3.0760     4.3540     0.4640 ha         1 92O       0.127000
     31 H6           3.3240     4.1620     2.8910 ha         1 92O       0.128000
     32 H11          3.3920     3.4730     5.2260 hc         1 92O       0.054700
     33 H121         1.6020     1.6020     6.8220 hc         1 92O       0.050200
     34 H122         1.1050     3.1240     6.0610 hc         1 92O       0.050200
     35 H151         3.9790     0.7860     6.5230 hc         1 92O       0.050200
     36 H152         5.1110     1.7460     5.5540 hc         1 92O       0.050200
     37 H1           1.5850    -0.9060     2.8330 hn         1 92O       0.295700
@<TRIPOS>BOND
     1     1     3 1
     2     2    11 1
     3     2    12 1
     4     3     5 1
     5     4    15 1
     6     4    16 1
     7     5     6 ar
     8     5    12 ar
     9     6     7 ar
    10     7     8 ar
    11     8     9 ar
    12     9    10 1
    13     9    12 ar
    14    10    11 2
    15    10    13 1
    16    13    14 1
    17    13    17 1
    18    14    15 1
    19    16    17 1
    20     1    18 1
    21     1    19 1
    22     1    20 1
    23     3    21 1
    24     3    22 1
    25     2    37 1
    26    11    23 1
    27     4    24 1
    28    15    25 1
    29    15    26 1
    30    16    27 1
    31    16    28 1
    32     6    29 1
    33     7    30 1
    34     8    31 1
    35    13    32 1
    36    14    33 1
    37    14    34 1
    38    17    35 1
    39    17    36 1
@<TRIPOS>SUBSTRUCTURE
     1 92O         1 TEMP              0 ****  ****    0 ROOT
