@<TRIPOS>MOLECULE
92P
   21    22     1     0     0
SMALL
bcc


@<TRIPOS>ATOM
      1 C1          0.0130    0.0010   -0.0130 ca        1 92P     -0.263300
      2 C2          1.4320   -0.0010    0.0320 ca        1 92P      0.410200
      3 N3          2.1710   -0.0020    1.1480 nb        1 92P     -0.664000
      4 C4         -0.7170    0.0030    1.1670 ca        1 92P     -0.043000
      5 N5          1.9340   -0.0010    3.6320 na        1 92P     -0.278100
      6 C6          0.8500    0.0010    4.4950 cc        1 92P     -0.013100
      7 C7         -0.3510    0.0020    3.7710 cd        1 92P     -0.199400
      8 C8         -0.0060    0.0020    2.3690 ca        1 92P     -0.155100
      9 C9          1.4480   -0.0010    2.3070 ca        1 92P      0.408800
     10 C10        -1.6900    0.0050    4.3090 c         1 92P      0.678300
     11 O11        -2.7690    0.0060    3.7080 o         1 92P     -0.550000
     12 O12        -1.7320    0.0050    5.6860 os        1 92P     -0.450900
     13 C13        -3.0300    0.0070    6.2790 c3        1 92P      0.129700
     14 H1         -0.4920    0.0020   -0.9880 ha        1 92P      0.146000
     15 H2          2.0130   -0.0020   -0.9090 h4        1 92P      0.024100
     16 H4         -1.8190    0.0040    1.1790 ha        1 92P      0.165000
     17 H5          2.8880   -0.0030    3.8860 hn        1 92P      0.315700
     18 H6          0.9830    0.0010    5.5820 h4        1 92P      0.188000
     19 H131       -2.8180    0.0080    7.3770 h1        1 92P      0.050033
     20 H132       -3.5920   -0.9060    5.9700 h1        1 92P      0.050033
     21 H133       -3.5890    0.9230    5.9700 h1        1 92P      0.050033
@<TRIPOS>BOND
     1    1    2 ar  
     2    1    4 ar  
     3    1   14 1   
     4    2    3 ar  
     5    2   15 1   
     6    3    9 ar  
     7    4    8 ar  
     8    4   16 1   
     9    5    6 1   
    10    5    9 1   
    11    5   17 1   
    12    6    7 2   
    13    6   18 1   
    14    7    8 1   
    15    7   10 1   
    16    8    9 ar  
    17   10   11 2   
    18   10   12 1   
    19   12   13 1   
    20   13   19 1   
    21   13   20 1   
    22   13   21 1   
@<TRIPOS>SUBSTRUCTURE
     1 92P         1 TEMP              0 ****  ****    0 ROOT
