@<TRIPOS>MOLECULE
molecule
   21    22     1     0     0
SMALL
bcc


@<TRIPOS>ATOM
      1 C1           0.0000     0.0000     0.0000 ca         1 92P      -0.280300
      2 C2           1.3850     0.0000     0.0000 ca         1 92P       0.447200
      3 N3           2.0740     0.0000     1.1220 nb         1 92P      -0.711000
      4 C4          -0.6780     0.0020     1.2060 ca         1 92P      -0.037000
      5 N5           1.9520     0.0010     3.5980 na         1 92P      -0.266100
      6 C6           0.9280     0.0020     4.4850 cc         1 92P      -0.026100
      7 C7          -0.2610     0.0030     3.8150 cd         1 92P      -0.207400
      8 C8           0.0720     0.0020     2.3800 ca         1 92P      -0.174100
      9 C9           1.4750     0.0010     2.3070 ca         1 92P       0.454800
     10 C10         -1.6050     0.0040     4.4070 c          1 92P       0.678300
     11 O11         -2.5850     0.0040     3.6880 o          1 92P      -0.556000
     12 O12         -1.7510     0.0050     5.7470 os         1 92P      -0.437900
     13 C13         -3.1080     0.0060     6.2620 c3         1 92P       0.142700
     14 H1          -0.5470     0.0000    -0.9350 ha         1 92P       0.142000
     15 H2           1.9140    -0.0020    -0.9450 h4         1 92P       0.025100
     16 H4          -1.7610     0.0020     1.2370 ha         1 92P       0.163000
     17 H5           2.9220     0.0010     3.8470 hn         1 92P       0.309700
     18 H6           1.0370     0.0030     5.5630 h4         1 92P       0.186000
     19 H131        -3.6270    -0.8780     5.9130 h1         1 92P       0.048700
     20 H132        -3.0830     0.0060     7.3450 h1         1 92P       0.048700
     21 H133        -3.6260     0.8910     5.9120 h1         1 92P       0.048700
@<TRIPOS>BOND
     1     1     2 ar
     2     1     4 ar
     3     2     3 ar
     4     3     9 ar
     5     4     8 ar
     6     5     6 1
     7     5     9 1
     8     6     7 2
     9     7     8 1
    10     7    10 1
    11     8     9 ar
    12    10    11 2
    13    10    12 1
    14    12    13 1
    15     1    14 1
    16     2    15 1
    17     4    16 1
    18     5    17 1
    19     6    18 1
    20    13    19 1
    21    13    20 1
    22    13    21 1
@<TRIPOS>SUBSTRUCTURE
     1 92P         1 TEMP              0 ****  ****    0 ROOT
