@<TRIPOS>MOLECULE
92Q
   53    56     1     0     0
SMALL
bcc


@<TRIPOS>ATOM
      1 CAV          0.0000     0.0000     0.0000 c3         1 92Q      -0.038400
      2 CAU          1.5440     0.0000     0.0000 c3         1 92Q       0.142800
      3 NAT          1.9180     0.0000     1.4380 n7         1 92Q      -0.588200
      4 CAS          0.9340    -0.9140     2.0710 c3         1 92Q       0.126800
      5 CAR         -0.4010    -0.6020     1.3630 c3         1 92Q       0.018700
      6 NAQ         -1.1750     0.3710     2.1400 ns         1 92Q      -0.185900
      7 CAP         -2.0340    -0.0550     3.0870 c          1 92Q       0.594700
      8 OAW         -2.1670    -1.2450     3.2960 o          1 92Q      -0.646100
      9 CAO         -2.8130     0.9250     3.8720 ca         1 92Q      -0.129600
     10 CAX         -3.7040     0.4880     4.8530 ca         1 92Q      -0.051000
     11 CAN         -2.6580     2.2920     3.6390 ca         1 92Q      -0.101000
     12 CAM         -3.3860     3.2060     4.3720 ca         1 92Q      -0.086000
     13 CAL         -4.2720     2.7720     5.3410 ca         1 92Q      -0.116000
     14 CAK         -4.4310     1.4120     5.5850 ca         1 92Q      -0.029400
     15 NAJ         -5.3290     0.9790     6.5650 nu         1 92Q      -0.240300
     16 CAI         -5.1310    -0.2330     7.1930 cc         1 92Q       0.558300
     17 SAY         -6.2300    -0.9560     8.2840 ss         1 92Q      -0.331300
     18 NAH         -4.0820    -0.9890     7.0350 nd         1 92Q      -0.656000
     19 CAG         -4.0470    -2.1130     7.7040 cd         1 92Q       0.499200
     20 CAF         -5.1480    -2.3320     8.4830 cc         1 92Q      -0.244000
     21 CAE         -5.3850    -3.4980     9.3330 c          1 92Q       0.632700
     22 OAZ         -4.5570    -4.3890     9.3880 o          1 92Q      -0.626100
     23 NAD         -6.5190    -3.5860    10.0570 ns         1 92Q      -0.047100
     24 CAC         -6.6940    -4.6420    10.9580 ca         1 92Q      -0.087400
     25 CAB         -6.5120    -5.9550    10.5360 ca         1 92Q      -0.023600
     26 Cl          -6.0670    -6.2850     8.8910 cl         1 92Q       0.018600
     27 CBE         -6.6850    -6.9950    11.4290 ca         1 92Q      -0.096000
     28 CBD         -7.0390    -6.7310    12.7400 ca         1 92Q      -0.090000
     29 CBC         -7.2210    -5.4270    13.1610 ca         1 92Q      -0.095000
     30 CBA         -7.0440    -4.3820    12.2750 ca         1 92Q      -0.091300
     31 CBB         -7.2370    -2.9610    12.7380 c3         1 92Q       0.062200
     32 H1          -0.3750     1.0130    -0.0880 hc         1 92Q       0.023200
     33 H2          -0.3750    -0.6180    -0.8070 hc         1 92Q       0.023200
     34 H3           1.9200     0.8920    -0.4870 h1         1 92Q       0.010700
     35 H4           1.9200    -0.8920    -0.4870 h1         1 92Q       0.010700
     36 H5           2.8390    -0.3770     1.5430 hn         1 92Q       0.255800
     37 H7           1.2160    -1.9470     1.9020 h1         1 92Q       0.024200
     38 H8           0.8550    -0.7060     3.1310 h1         1 92Q       0.024200
     39 H9          -0.9690    -1.5120     1.2170 h1         1 92Q       0.060700
     40 H10         -1.0930     1.3480     1.9420 hn         1 92Q       0.184500
     41 H11         -3.8260    -0.5720     5.0410 ha         1 92Q       0.169000
     42 H12         -1.9650     2.6370     2.8800 ha         1 92Q       0.104000
     43 H13         -3.2650     4.2660     4.1870 ha         1 92Q       0.106000
     44 H14         -4.8420     3.4940     5.9140 ha         1 92Q       0.105000
     45 H15         -6.1350     1.5310     6.7840 hn         1 92Q       0.288800
     46 H16         -3.2200    -2.8100     7.6420 h4         1 92Q       0.022100
     47 H17         -7.2540    -2.9220     9.9170 hn         1 92Q       0.175500
     48 H18         -6.5430    -8.0180    11.1020 ha         1 92Q       0.115000
     49 H19         -7.1760    -7.5490    13.4370 ha         1 92Q       0.105000
     50 H20         -7.4960    -5.2240    14.1890 ha         1 92Q       0.108000
     51 H21         -7.3790    -2.9470    13.8120 hc         1 92Q       0.010033
     52 H22         -6.3620    -2.3760    12.4820 hc         1 92Q       0.010033
     53 H23         -8.1080    -2.5380    12.2520 hc         1 92Q       0.010033
@<TRIPOS>BOND
     1     1     2 1   
     2     1     5 1   
     3     1    32 1   
     4     1    33 1   
     5     2     3 1   
     6     2    34 1   
     7     2    35 1   
     8     3     4 1   
     9     3    36 1   
    10     4     5 1   
    11     4    37 1   
    12     4    38 1   
    13     5     6 1   
    14     5    39 1   
    15     6     7 1   
    16     6    40 1   
    17     7     8 2   
    18     7     9 1   
    19     9    10 ar  
    20     9    11 ar  
    21    10    14 ar  
    22    10    41 1   
    23    11    12 ar  
    24    11    42 1   
    25    12    13 ar  
    26    12    43 1   
    27    13    14 ar  
    28    13    44 1   
    29    14    15 1   
    30    15    16 1   
    31    15    45 1   
    32    16    17 1   
    33    16    18 2   
    34    17    20 1   
    35    18    19 1   
    36    19    20 2   
    37    19    46 1   
    38    20    21 1   
    39    21    22 2   
    40    21    23 1   
    41    23    24 1   
    42    23    47 1   
    43    24    25 ar  
    44    24    30 ar  
    45    25    26 1   
    46    25    27 ar  
    47    27    28 ar  
    48    27    48 1   
    49    28    29 ar  
    50    28    49 1   
    51    29    30 ar  
    52    29    50 1   
    53    30    31 1   
    54    31    51 1   
    55    31    52 1   
    56    31    53 1   
@<TRIPOS>SUBSTRUCTURE
     1 92Q         1 TEMP              0 ****  ****    0 ROOT
