@<TRIPOS>MOLECULE
molecule
   53    56     1     0     0
SMALL
bcc


@<TRIPOS>ATOM
      1 CAV          0.0000     0.0000     0.0000 c3         1 92Q      -0.097400
      2 CAU          1.5440     0.0000     0.0000 c3         1 92Q       0.134800
      3 NAT          1.9180     0.0000     1.4380 n7         1 92Q      -0.794200
      4 CAS          0.9340    -0.9140     2.0710 c3         1 92Q       0.122800
      5 CAR         -0.4010    -0.6020     1.3630 c3         1 92Q       0.116700
      6 NAQ         -1.1750     0.3710     2.1400 ns         1 92Q      -0.572900
      7 CAP         -2.0340    -0.0550     3.0870 c          1 92Q       0.672700
      8 OAW         -2.1670    -1.2450     3.2960 o          1 92Q      -0.605100
      9 CAO         -2.8130     0.9250     3.8720 ca         1 92Q      -0.124600
     10 CAX         -3.7040     0.4880     4.8530 ca         1 92Q      -0.075000
     11 CAN         -2.6580     2.2920     3.6390 ca         1 92Q      -0.126000
     12 CAM         -3.3860     3.2060     4.3720 ca         1 92Q      -0.116000
     13 CAL         -4.2720     2.7720     5.3410 ca         1 92Q      -0.148000
     14 CAK         -4.4310     1.4120     5.5850 ca         1 92Q       0.141600
     15 NAJ         -5.3290     0.9790     6.5650 nu         1 92Q      -0.740300
     16 CAI         -5.1310    -0.2330     7.1930 cc         1 92Q       0.730300
     17 SAY         -6.2300    -0.9560     8.2840 ss         1 92Q      -0.238300
     18 NAH         -4.0820    -0.9890     7.0350 nd         1 92Q      -0.757000
     19 CAG         -4.0470    -2.1130     7.7040 cd         1 92Q       0.496200
     20 CAF         -5.1480    -2.3320     8.4830 cc         1 92Q      -0.260000
     21 CAE         -5.3850    -3.4980     9.3330 c          1 92Q       0.714700
     22 OAZ         -4.5570    -4.3890     9.3880 o          1 92Q      -0.572100
     23 NAD         -6.5190    -3.5860    10.0570 ns         1 92Q      -0.483100
     24 CAC         -6.6940    -4.6420    10.9580 ca         1 92Q       0.057600
     25 CAB         -6.5120    -5.9550    10.5360 ca         1 92Q       0.041400
     26 Cl          -6.0670    -6.2850     8.8910 cl         1 92Q      -0.077400
     27 CBE         -6.6850    -6.9950    11.4290 ca         1 92Q      -0.118000
     28 CBD         -7.0390    -6.7310    12.7400 ca         1 92Q      -0.124000
     29 CBC         -7.2210    -5.4270    13.1610 ca         1 92Q      -0.120000
     30 CBA         -7.0440    -4.3820    12.2750 ca         1 92Q      -0.089300
     31 CBB         -7.2370    -2.9610    12.7380 c3         1 92Q      -0.044800
     32 H1          -0.3750     1.0130    -0.0880 hc         1 92Q       0.053700
     33 H2          -0.3750    -0.6180    -0.8070 hc         1 92Q       0.053700
     34 H3           1.9200     0.8920    -0.4870 h1         1 92Q       0.041200
     35 H4           1.9200    -0.8920    -0.4870 h1         1 92Q       0.041200
     36 H5           2.8390    -0.3770     1.5430 hn         1 92Q       0.348800
     37 H7           1.2160    -1.9470     1.9020 h1         1 92Q       0.054200
     38 H8           0.8550    -0.7060     3.1310 h1         1 92Q       0.054200
     39 H9          -0.9690    -1.5120     1.2170 h1         1 92Q       0.084700
     40 H10         -1.0930     1.3480     1.9420 hn         1 92Q       0.320500
     41 H11         -3.8260    -0.5720     5.0410 ha         1 92Q       0.194000
     42 H12         -1.9650     2.6370     2.8800 ha         1 92Q       0.128000
     43 H13         -3.2650     4.2660     4.1870 ha         1 92Q       0.136000
     44 H14         -4.8420     3.4940     5.9140 ha         1 92Q       0.131000
     45 H15         -6.1350     1.5310     6.7840 hn         1 92Q       0.463800
     46 H16         -3.2200    -2.8100     7.6420 h4         1 92Q       0.073100
     47 H17         -7.2540    -2.9220     9.9170 hn         1 92Q       0.324500
     48 H18         -6.5430    -8.0180    11.1020 ha         1 92Q       0.146000
     49 H19         -7.1760    -7.5490    13.4370 ha         1 92Q       0.136000
     50 H20         -7.4960    -5.2240    14.1890 ha         1 92Q       0.135000
     51 H21         -7.3790    -2.9470    13.8120 hc         1 92Q       0.045367
     52 H22         -6.3620    -2.3760    12.4820 hc         1 92Q       0.045367
     53 H23         -8.1080    -2.5380    12.2520 hc         1 92Q       0.045367
@<TRIPOS>BOND
     1    26    25 1
     2    27    25 ar
     3    27    28 ar
     4    25    24 ar
     5    28    29 ar
     6    24    23 1
     7    24    30 ar
     8    29    30 ar
     9    22    21 2
    10    23    21 1
    11    30    31 1
    12    21    20 1
    13    20    17 1
    14    20    19 2
    15    17    16 1
    16     4     3 1
    17     4     5 1
    18    19    18 1
    19     3     2 1
    20     2     1 1
    21     1     5 1
    22    16    18 2
    23    16    15 1
    24     6     5 1
    25     6     7 1
    26    13    12 ar
    27    13    14 ar
    28    12    11 ar
    29    15    14 1
    30    14    10 ar
    31    11     9 ar
    32    10     9 ar
    33     9     7 1
    34     7     8 2
    35     1    32 1
    36     1    33 1
    37     2    34 1
    38     2    35 1
    39     3    36 1
    40     4    37 1
    41     4    38 1
    42     5    39 1
    43     6    40 1
    44    10    41 1
    45    11    42 1
    46    12    43 1
    47    13    44 1
    48    15    45 1
    49    19    46 1
    50    23    47 1
    51    27    48 1
    52    28    49 1
    53    29    50 1
    54    31    51 1
    55    31    52 1
    56    31    53 1
@<TRIPOS>SUBSTRUCTURE
     1 92Q         1 TEMP              0 ****  ****    0 ROOT
