@<TRIPOS>MOLECULE
92R
   43    45     1     0     0
SMALL
bcc


@<TRIPOS>ATOM
      1 O1           0.0000     0.0000     0.0000 o          1 92R      -0.687500
      2 C9           1.2180     0.0000     0.0000 c          1 92R       0.611100
      3 C5           1.9640     0.0000     1.2630 ca         1 92R      -0.133600
      4 C4           1.3140     0.0000     2.4980 ca         1 92R      -0.066000
      5 C3           2.0540     0.0000     3.6600 ca         1 92R      -0.082000
      6 C2           3.4420    -0.0000     3.6180 ca         1 92R      -0.186000
      7 N            1.9030    -0.0070    -1.1630 ns         1 92R       0.033900
      8 C8           3.2780    -0.0070    -1.1860 cc         1 92R      -0.068600
      9 C7           4.0180    -0.0020    -0.0500 cd         1 92R      -0.151200
     10 C6           3.3770    -0.0010     1.2140 ca         1 92R      -0.028800
     11 C1           4.1110    -0.0010     2.4100 ca         1 92R       0.143100
     12 O            5.4690    -0.0010     2.3800 os         1 92R      -0.305900
     13 C            6.1460    -0.0000     3.6390 c3         1 92R       0.243700
     14 C10          3.9720    -0.0150    -2.4910 ca         1 92R      -0.059800
     15 C18          3.2350    -0.0210    -3.6760 ca         1 92R      -0.095500
     16 C17          3.8890    -0.0270    -4.8910 ca         1 92R      -0.082500
     17 C13          5.2710    -0.0290    -4.9360 ca         1 92R      -0.082300
     18 C12          6.0080    -0.0230    -3.7640 ca         1 92R      -0.082500
     19 C11          5.3670    -0.0100    -2.5430 ca         1 92R      -0.095500
     20 C14          5.9790    -0.0360    -6.2670 c3         1 92R       0.208100
     21 N1           6.2100     1.3460    -6.7070 n3         1 92R      -0.540600
     22 C16          7.0990     1.3840    -7.8750 c3         1 92R       0.179600
     23 C15          4.9390     2.0260    -6.9910 c3         1 92R       0.179600
     24 H            1.3990    -0.0110    -2.0280 hn         1 92R       0.178500
     25 H4           0.2310     0.0000     2.5420 ha         1 92R       0.128000
     26 H3           1.5470     0.0010     4.6170 ha         1 92R       0.104000
     27 H2           4.0060    -0.0000     4.5420 ha         1 92R       0.119000
     28 H7           5.0990    -0.0030    -0.1080 ha         1 92R       0.140000
     29 HC1          7.2170     0.0000     3.4720 h1         1 92R      -0.001300
     30 HC2          5.8680    -0.8850     4.1990 h1         1 92R      -0.001300
     31 HC3          5.8680     0.8850     4.1980 h1         1 92R      -0.001300
     32 H18          2.1520    -0.0200    -3.6420 ha         1 92R       0.112000
     33 H11          5.9440    -0.0050    -1.6260 ha         1 92R       0.112000
     34 H17          3.3180    -0.0320    -5.8120 ha         1 92R       0.110000
     35 H12          7.0900    -0.0210    -3.8060 ha         1 92R       0.110000
     36 H141         6.9290    -0.5470    -6.1670 h1         1 92R       0.013200
     37 H142         5.3670    -0.5510    -6.9980 h1         1 92R       0.013200
     38 H161         6.6220     0.8850    -8.7090 h1         1 92R       0.002367
     39 H162         8.0290     0.8810    -7.6370 h1         1 92R       0.002367
     40 H163         7.3040     2.4150    -8.1390 h1         1 92R       0.002367
     41 H151         4.2700     1.3440    -7.5010 h1         1 92R       0.002367
     42 H152         4.4860     2.3480    -6.0610 h1         1 92R       0.002367
     43 H153         5.1230     2.8890    -7.6200 h1         1 92R       0.002367
@<TRIPOS>BOND
     1     1     2 2   
     2     2     3 1   
     3     2     7 1   
     4     3     4 ar  
     5     3    10 ar  
     6     4     5 ar  
     7     4    25 1   
     8     5     6 ar  
     9     5    26 1   
    10     6    11 ar  
    11     6    27 1   
    12     7     8 1   
    13     7    24 1   
    14     8     9 2   
    15     8    14 1   
    16     9    10 1   
    17     9    28 1   
    18    10    11 ar  
    19    11    12 1   
    20    12    13 1   
    21    13    29 1   
    22    13    30 1   
    23    13    31 1   
    24    14    15 ar  
    25    14    19 ar  
    26    15    16 ar  
    27    15    32 1   
    28    16    17 ar  
    29    16    34 1   
    30    17    18 ar  
    31    17    20 1   
    32    18    19 ar  
    33    18    35 1   
    34    19    33 1   
    35    20    21 1   
    36    20    36 1   
    37    20    37 1   
    38    21    22 1   
    39    21    23 1   
    40    22    38 1   
    41    22    39 1   
    42    22    40 1   
    43    23    41 1   
    44    23    42 1   
    45    23    43 1   
@<TRIPOS>SUBSTRUCTURE
     1 92R         1 TEMP              0 ****  ****    0 ROOT
