@<TRIPOS>MOLECULE
92T
   51    56     1     0     0
SMALL
bcc


@<TRIPOS>ATOM
      1 C2           0.0000     0.0000     0.0000 ca         1 92T       0.628900
      2 C4           1.9960     0.0000     1.1470 ca         1 92T       0.375300
      3 CAY          9.2070     0.8560    -1.6340 c          1 92T       0.567500
      4 NAX          9.9900     0.7200    -2.7200 ns         1 92T       0.024900
      5 CAW         10.8530    -0.3540    -2.5070 ca         1 92T      -0.172400
      6 CBC         11.8470    -0.9370    -3.2700 ca         1 92T      -0.052000
      7 CBB         12.5500    -2.0350    -2.7700 ca         1 92T       0.028000
      8 CBE         13.5810    -2.6440    -3.5560 cg         1 92T       0.230800
      9 NBF         14.4000    -3.1410    -4.1660 n1         1 92T      -0.375800
     10 CBA         12.2480    -2.5380    -1.5010 ca         1 92T      -0.067000
     11 CAZ         11.2570    -1.9550    -0.7430 ca         1 92T      -0.083000
     12 CAV         10.5550    -0.8630    -1.2380 ca         1 92T      -0.132400
     13 NAU          9.5280    -0.0810    -0.7220 n          1 92T       0.088000
     14 CAN          8.8970    -0.2530     0.5880 cy         1 92T      -0.011300
     15 CBH          7.6980    -1.2170     0.5730 cy         1 92T      -0.051400
     16 CBG          7.8950     0.8600     0.9390 cy         1 92T      -0.051400
     17 CAH          6.8210     0.0030     0.2500 cy         1 92T      -0.084000
     18 CAE          5.4960     0.0020     0.9690 cc         1 92T       0.198800
     19 NAD          5.3210     0.0010     2.2660 nd         1 92T      -0.334000
     20 NAC          4.0650    -0.0010     2.5400 nd         1 92T      -0.293000
     21 CAB          3.3690     0.0000     1.4240 cc         1 92T       0.110500
     22 N3           1.3160     0.0000     0.0000 nb         1 92T      -0.619000
     23 N1          -0.6970     0.0040     1.1190 nb         1 92T      -0.628000
     24 C6          -0.0960     0.0050     2.2990 ca         1 92T       0.438200
     25 C5           1.2860    -0.0000     2.3530 ca         1 92T      -0.321600
     26 NAA          4.2710     0.0090     0.3910 na         1 92T       0.287200
     27 CAG          3.9850     0.0190    -0.9800 ca         1 92T      -0.181200
     28 CAI          3.8490     1.2270    -1.6550 ca         1 92T      -0.002600
     29 Cl1          4.0350     2.7250    -0.7980 cl         1 92T       0.013600
     30 CAJ          3.5660     1.2330    -3.0080 ca         1 92T      -0.093000
     31 CAK          3.4190     0.0390    -3.6900 ca         1 92T      -0.062000
     32 CAL          3.5530    -1.1640    -3.0220 ca         1 92T      -0.100000
     33 CAM          3.8400    -1.1770    -1.6700 ca         1 92T      -0.052000
     34 H1          -0.5260    -0.0000    -0.9470 h5         1 92T       0.001100
     35 H2           9.9590     1.2930    -3.5400 hn         1 92T       0.194500
     36 H3          12.1420    -0.4870    -4.2100 ha         1 92T       0.117000
     37 H4          12.7940    -3.3900    -1.1140 ha         1 92T       0.118000
     38 H5          11.0260    -2.3480     0.2400 ha         1 92T       0.116000
     39 H6           9.5910    -0.4600     1.3930 h1         1 92T       0.051700
     40 H7           7.7420    -1.9340    -0.2380 hc         1 92T       0.056700
     41 H8           7.4870    -1.6460     1.5450 hc         1 92T       0.056700
     42 H9           8.0950     1.7890     0.4190 hc         1 92T       0.056700
     43 H10          7.7350     0.9650     2.0060 hc         1 92T       0.056700
     44 H11          6.7500     0.1980    -0.8130 hc         1 92T       0.071700
     45 H12         -0.6800     0.0060     3.2120 h4         1 92T      -0.012900
     46 H13          1.8050    -0.0000     3.3040 ha         1 92T       0.155000
     47 H14          3.4610     2.1740    -3.5350 ha         1 92T       0.121000
     48 H15          3.1960     0.0460    -4.7500 ha         1 92T       0.108000
     49 H16          3.4380    -2.0970    -3.5590 ha         1 92T       0.111000
     50 H17          3.9450    -2.1200    -1.1470 ha         1 92T       0.114000
     51 OBD          8.3440     1.7020    -1.4950 o          1 92T      -0.715500
@<TRIPOS>BOND
     1     1    22 ar  
     2     1    23 ar  
     3     1    34 1   
     4     2    21 1   
     5     2    22 ar  
     6     2    25 ar  
     7     3     4 1   
     8     3    13 1   
     9     3    51 2   
    10     4     5 1   
    11     4    35 1   
    12     5     6 ar  
    13     5    12 ar  
    14     6     7 ar  
    15     6    36 1   
    16     7     8 1   
    17     7    10 ar  
    18     8     9 3   
    19    10    11 ar  
    20    10    37 1   
    21    11    12 ar  
    22    11    38 1   
    23    12    13 1   
    24    13    14 1   
    25    14    15 1   
    26    14    16 1   
    27    14    39 1   
    28    15    17 1   
    29    15    40 1   
    30    15    41 1   
    31    16    17 1   
    32    16    42 1   
    33    16    43 1   
    34    17    18 1   
    35    17    44 1   
    36    18    19 2   
    37    18    26 1   
    38    19    20 1   
    39    20    21 2   
    40    21    26 1   
    41    23    24 ar  
    42    24    25 ar  
    43    24    45 1   
    44    25    46 1   
    45    26    27 1   
    46    27    28 ar  
    47    27    33 ar  
    48    28    29 1   
    49    28    30 ar  
    50    30    31 ar  
    51    30    47 1   
    52    31    32 ar  
    53    31    48 1   
    54    32    33 ar  
    55    32    49 1   
    56    33    50 1   
@<TRIPOS>SUBSTRUCTURE
     1 92T         1 TEMP              0 ****  ****    0 ROOT
