@<TRIPOS>MOLECULE
molecule
   51    56     1     0     0
SMALL
bcc


@<TRIPOS>ATOM
      1 C2           0.0000     0.0000     0.0000 ca         1 92T       0.684900
      2 C4           1.9960     0.0000     1.1470 ca         1 92T       0.425300
      3 CAY          9.2070     0.8560    -1.6340 c          1 92T       0.802500
      4 NAX          9.9900     0.7200    -2.7200 ns         1 92T      -0.445100
      5 CAW         10.8530    -0.3540    -2.5070 ca         1 92T      -0.014400
      6 CBC         11.8470    -0.9370    -3.2700 ca         1 92T      -0.087000
      7 CBB         12.5500    -2.0350    -2.7700 ca         1 92T      -0.019000
      8 CBE         13.5810    -2.6440    -3.5560 cg         1 92T       0.240800
      9 NBF         14.4000    -3.1410    -4.1660 n1         1 92T      -0.356800
     10 CBA         12.2480    -2.5380    -1.5010 ca         1 92T      -0.086000
     11 CAZ         11.2570    -1.9550    -0.7430 ca         1 92T      -0.128000
     12 CAV         10.5550    -0.8630    -1.2380 ca         1 92T       0.022600
     13 NAU          9.5280    -0.0810    -0.7220 n          1 92T      -0.339000
     14 CAN          8.8970    -0.2530     0.5880 cy         1 92T       0.095700
     15 CBH          7.6980    -1.2170     0.5730 cy         1 92T      -0.097400
     16 CBG          7.8950     0.8600     0.9390 cy         1 92T      -0.097400
     17 CAH          6.8210     0.0030     0.2500 cy         1 92T      -0.111000
     18 CAE          5.4960     0.0020     0.9690 cc         1 92T       0.405800
     19 NAD          5.3210     0.0010     2.2660 nd         1 92T      -0.361000
     20 NAC          4.0650    -0.0010     2.5400 nd         1 92T      -0.320000
     21 CAB          3.3690     0.0000     1.4240 cc         1 92T       0.315500
     22 N3           1.3160     0.0000     0.0000 nb         1 92T      -0.727000
     23 N1          -0.6970     0.0040     1.1190 nb         1 92T      -0.734000
     24 C6          -0.0960     0.0050     2.2990 ca         1 92T       0.451200
     25 C5           1.2860    -0.0000     2.3530 ca         1 92T      -0.351600
     26 NAA          4.2710     0.0090     0.3910 na         1 92T      -0.236800
     27 CAG          3.9850     0.0190    -0.9800 ca         1 92T      -0.002200
     28 CAI          3.8490     1.2270    -1.6550 ca         1 92T       0.056400
     29 Cl1          4.0350     2.7250    -0.7980 cl         1 92T      -0.079400
     30 CAJ          3.5660     1.2330    -3.0080 ca         1 92T      -0.116000
     31 CAK          3.4190     0.0390    -3.6900 ca         1 92T      -0.105000
     32 CAL          3.5530    -1.1640    -3.0220 ca         1 92T      -0.125000
     33 CAM          3.8400    -1.1770    -1.6700 ca         1 92T      -0.092000
     34 H1          -0.5260    -0.0000    -0.9470 h5         1 92T       0.063100
     35 H2           9.9590     1.2930    -3.5400 hn         1 92T       0.365500
     36 H3          12.1420    -0.4870    -4.2100 ha         1 92T       0.148000
     37 H4          12.7940    -3.3900    -1.1140 ha         1 92T       0.150000
     38 H5          11.0260    -2.3480     0.2400 ha         1 92T       0.147000
     39 H6           9.5910    -0.4600     1.3930 h1         1 92T       0.081700
     40 H7           7.7420    -1.9340    -0.2380 hc         1 92T       0.086450
     41 H8           7.4870    -1.6460     1.5450 hc         1 92T       0.086450
     42 H9           8.0950     1.7890     0.4190 hc         1 92T       0.086450
     43 H10          7.7350     0.9650     2.0060 hc         1 92T       0.086450
     44 H11          6.7500     0.1980    -0.8130 hc         1 92T       0.102700
     45 H12         -0.6800     0.0060     3.2120 h4         1 92T       0.033100
     46 H13          1.8050    -0.0000     3.3040 ha         1 92T       0.177000
     47 H14          3.4610     2.1740    -3.5350 ha         1 92T       0.152000
     48 H15          3.1960     0.0460    -4.7500 ha         1 92T       0.140000
     49 H16          3.4380    -2.0970    -3.5590 ha         1 92T       0.140000
     50 H17          3.9450    -2.1200    -1.1470 ha         1 92T       0.147000
     51 OBD          8.3440     1.7020    -1.4950 o          1 92T      -0.658500
@<TRIPOS>BOND
     1     9     8 3
     2    29    28 1
     3     8     7 1
     4    30    28 ar
     5    30    31 ar
     6     7    10 ar
     7     7     6 ar
     8    10    11 ar
     9    28    27 ar
    10    31    32 ar
    11     6     5 ar
    12    11    12 ar
    13    15    17 1
    14    15    14 1
    15     5    12 ar
    16     5     4 1
    17    12    13 1
    18    27    26 1
    19    27    33 ar
    20    17    18 1
    21    17    16 1
    22    32    33 ar
    23    25    24 ar
    24    25     2 ar
    25    26    18 1
    26    26    21 1
    27     4     3 1
    28    18    19 2
    29    13     3 1
    30    13    14 1
    31    24    23 ar
    32     3    51 2
    33    21     2 1
    34    21    20 2
    35    14    16 1
    36    19    20 1
    37     2    22 ar
    38    23     1 ar
    39    22     1 ar
    40     1    34 1
    41     4    35 1
    42     6    36 1
    43    10    37 1
    44    11    38 1
    45    14    39 1
    46    15    40 1
    47    15    41 1
    48    16    42 1
    49    16    43 1
    50    17    44 1
    51    24    45 1
    52    25    46 1
    53    30    47 1
    54    31    48 1
    55    32    49 1
    56    33    50 1
@<TRIPOS>SUBSTRUCTURE
     1 92T         1 TEMP              0 ****  ****    0 ROOT
