@<TRIPOS>MOLECULE
molecule
   42    44     1     0     0
SMALL
bcc


@<TRIPOS>ATOM
      1 C10          0.0000     0.0000     0.0000 c          1 92U       0.627300
      2 C13         -2.1120    -0.5850    -1.3140 cc         1 92U       0.173800
      3 C20          3.6890    -1.4380     4.2150 c3         1 92U      -0.122100
      4 C21          6.6550    -0.0030    -0.9360 c3         1 92U       0.266800
      5 C22          6.9090     1.4340    -1.3960 c3         1 92U      -0.122100
      6 C01          2.1760     0.0000     1.2040 ca         1 92U      -0.065000
      7 C02          1.4760     0.0000     0.0000 ca         1 92U      -0.155600
      8 C03          2.1800    -0.0010    -1.2070 ca         1 92U      -0.105000
      9 C04          3.5520    -0.0010    -1.1960 ca         1 92U      -0.133000
     10 C05          4.2640    -0.0010     0.0130 ca         1 92U       0.110600
     11 C06          3.5700    -0.0010     1.2160 ca         1 92U       0.078600
     12 N07          5.6620    -0.0030     0.1410 nh         1 92U      -0.659900
     13 S08          5.9510    -0.0030     1.7830 s6         1 92U       1.526800
     14 N09          4.3890    -0.0020     2.3640 nh         1 92U      -0.662900
     15 C11         -0.7340    -0.6050    -1.1200 cd         1 92U      -0.401900
     16 O12         -0.6090     0.4970     0.9290 o          1 92U      -0.531100
     17 N14         -2.3620    -1.2560    -2.4540 na         1 92U       0.049400
     18 N15         -1.1470    -1.6980    -2.9860 nc         1 92U      -0.506800
     19 C16         -0.1750    -1.3180    -2.2070 cd         1 92U       0.367200
     20 C18         -3.6860    -1.4850    -3.0400 c3         1 92U       0.053600
     21 C19          3.9600    -0.0020     3.7650 c3         1 92U       0.267800
     22 O23          6.5290     1.2530     2.1140 o          1 92U      -0.624800
     23 O24          6.5310    -1.2580     2.1130 o          1 92U      -0.624800
     24 H1           3.5630    -2.0720     3.3450 hc         1 92U       0.049033
     25 H2           4.5250    -1.7960     4.8040 hc         1 92U       0.049033
     26 H3           2.7870    -1.4650     4.8150 hc         1 92U       0.049033
     27 H4           6.2900    -0.5900    -1.7700 h1         1 92U       0.057200
     28 H5           7.5780    -0.4330    -0.5670 h1         1 92U       0.057200
     29 H6           7.0140     1.4540    -2.4740 hc         1 92U       0.049700
     30 H7           7.8170     1.8040    -0.9370 hc         1 92U       0.049700
     31 H8           6.0750     2.0600    -1.1030 hc         1 92U       0.049700
     32 H9           1.6320    -0.0000     2.1410 ha         1 92U       0.158000
     33 H10          1.6460     0.0930    -2.1450 ha         1 92U       0.148000
     34 H11          4.0930    -0.0020    -2.1340 ha         1 92U       0.141000
     35 H13          0.8790    -1.5160    -2.3620 h4         1 92U       0.063100
     36 H14         -3.5750    -1.9450    -4.0150 h1         1 92U       0.060700
     37 H15         -4.2590    -2.1400    -2.3950 h1         1 92U       0.060700
     38 H16         -4.2030    -0.5380    -3.1450 h1         1 92U       0.060700
     39 H17          3.0540     0.5850     3.8640 h1         1 92U       0.059700
     40 H18          4.7390     0.4290     4.3810 h1         1 92U       0.059700
     41 H12         -3.5340    -0.6710    -0.0720 ho         1 92U       0.432000
     42 O17         -3.0290    -0.0030    -0.5050 oh         1 92U      -0.461100
@<TRIPOS>BOND
     1    20    17 1
     2    17    18 1
     3    17     2 1
     4    18    19 2
     5     2    42 1
     6     2    15 2
     7    19    15 1
     8     3    21 1
     9    15     1 1
    10    21    14 1
    11    23    13 2
    12     1     7 1
    13     1    16 2
    14     6     7 ar
    15     6    11 ar
    16    14    11 1
    17    14    13 1
    18     7     8 ar
    19    11    10 ar
    20    13    12 1
    21    13    22 2
    22     8     9 ar
    23    10    12 1
    24    10     9 ar
    25    12     4 1
    26     5     4 1
    27     3    24 1
    28     3    25 1
    29     3    26 1
    30     4    27 1
    31     4    28 1
    32     5    29 1
    33     5    30 1
    34     5    31 1
    35     6    32 1
    36     8    33 1
    37     9    34 1
    38    19    35 1
    39    20    36 1
    40    20    37 1
    41    20    38 1
    42    21    39 1
    43    21    40 1
    44    42    41 1
@<TRIPOS>SUBSTRUCTURE
     1 92U         1 TEMP              0 ****  ****    0 ROOT
