@<TRIPOS>MOLECULE
92V
   40    41     1     0     0
SMALL
bcc


@<TRIPOS>ATOM
      1 C10          0.0000     0.0000     0.0000 ca         1 92V      -0.165500
      2 C13          3.4940    -0.0010    -1.1030 c3         1 92V       0.243700
      3 C21         -4.8190     1.0340     7.8400 c3         1 92V       0.051000
      4 C22         -4.8160     0.5260     9.2830 c3         1 92V      -0.021400
      5 C01         -2.2110     0.3770     5.1600 cc         1 92V      -0.326900
      6 C02         -1.8660     0.6270     3.8460 cd         1 92V      -0.319600
      7 C05         -1.1940    -0.4330     5.7130 cc         1 92V       0.412200
      8 C06          0.0040     0.0010     2.3980 ca         1 92V      -0.243200
      9 C07          1.3920     0.0000     2.3970 ca         1 92V      -0.035000
     10 C08          2.0820     0.0000     1.2010 ca         1 92V      -0.165500
     11 C09          1.3870     0.0000     0.0000 ca         1 92V       0.176100
     12 C11         -0.6910     0.0010     1.1940 ca         1 92V      -0.035000
     13 C14         -2.6510     1.4500     2.8570 c3         1 92V       0.686200
     14 C18         -3.4130     0.8690     5.8560 c          1 92V       0.625700
     15 C23         -6.0640     1.0360    10.0070 c3         1 92V       0.109700
     16 F15         -3.5490     0.6240     2.1730 f          1 92V      -0.196967
     17 F16         -3.3580     2.4460     3.5380 f          1 92V      -0.196967
     18 F17         -1.7730     2.0420     1.9430 f          1 92V      -0.196967
     19 N03         -0.6990     0.0010     3.6120 na         1 92V       0.724300
     20 N04         -0.3010    -0.6500     4.7850 nd         1 92V      -0.648800
     21 N20         -3.6240     0.5450     7.1480 ns         1 92V      -0.192900
     22 O12          2.0670    -0.0010    -1.1770 os         1 92V      -0.302900
     23 O19         -4.2150     1.5680     5.2660 o          1 92V      -0.640100
     24 S24         -6.0600     0.4340    11.7180 sh         1 92V      -0.409900
     25 H101        -0.5410     0.0000    -0.9380 ha         1 92V       0.127000
     26 H132         3.8290    -0.8850    -0.5730 h1         1 92V       0.000367
     27 H131         3.8280     0.8840    -0.5740 h1         1 92V       0.000367
     28 H133         3.9080    -0.0010    -2.1040 h1         1 92V       0.000367
     29 H212        -4.8190     2.1170     7.8380 h1         1 92V       0.028700
     30 H211        -5.7040     0.6720     7.3310 h1         1 92V       0.028700
     31 H221        -4.8150    -0.5570     9.2840 hc         1 92V       0.031200
     32 H222        -3.9300     0.8880     9.7910 hc         1 92V       0.031200
     33 H051        -1.1610    -0.8090     6.7290 h4         1 92V       0.008100
     34 H071         1.9340     0.0000     3.3350 ha         1 92V       0.125000
     35 H081         3.1650    -0.0000     1.2000 ha         1 92V       0.127000
     36 H111        -1.7740     0.0010     1.1940 ha         1 92V       0.125000
     37 H201        -2.9730    -0.0450     7.6280 hn         1 92V       0.175500
     38 H232        -6.0640     2.1200    10.0060 h1         1 92V       0.034200
     39 H231        -6.9490     0.6740     9.4980 h1         1 92V       0.034200
     40 H1          -7.1430     0.8760    12.3450 hs         1 92V       0.190800
@<TRIPOS>BOND
     1     1    11 ar  
     2     1    12 ar  
     3     1    25 1   
     4     2    22 1   
     5     2    26 1   
     6     2    27 1   
     7     2    28 1   
     8     3     4 1   
     9     3    21 1   
    10     3    29 1   
    11     3    30 1   
    12     4    15 1   
    13     4    31 1   
    14     4    32 1   
    15     5     6 2   
    16     5     7 1   
    17     5    14 1   
    18     6    13 1   
    19     6    19 1   
    20     7    20 2   
    21     7    33 1   
    22     8     9 ar  
    23     8    12 ar  
    24     8    19 1   
    25     9    10 ar  
    26     9    34 1   
    27    10    11 ar  
    28    10    35 1   
    29    11    22 1   
    30    12    36 1   
    31    13    16 1   
    32    13    17 1   
    33    13    18 1   
    34    14    21 1   
    35    14    23 2   
    36    15    24 1   
    37    15    38 1   
    38    15    39 1   
    39    19    20 1   
    40    21    37 1   
    41    24    40 1   
@<TRIPOS>SUBSTRUCTURE
     1 92V         1 TEMP              0 ****  ****    0 ROOT
