@<TRIPOS>MOLECULE
92X
   53    56     1     0     0
SMALL
bcc


@<TRIPOS>ATOM
      1 C10          0.0000     0.0000     0.0000 ca         1 92X      -0.228600
      2 C13          2.0970     0.0000     1.1750 ca         1 92X      -0.197000
      3 C15          0.0100     0.0110     2.4020 ca         1 92X      -0.249600
      4 C21         -0.5420    -0.0040     6.0800 ca         1 92X      -0.092400
      5 C22          1.4240    -0.0150     4.7580 c          1 92X       0.593500
      6 C26         -0.8620    -1.2060     6.6970 ca         1 92X      -0.059000
      7 C28         -1.7770    -0.0070     8.5560 ca         1 92X      -0.077000
      8 C1           0.7410    -0.8860    -4.7400 c3         1 92X      -0.017200
      9 C2           0.9770     0.5570    -5.1840 c3         1 92X      -0.011400
     10 C3           1.6640     1.3280    -4.0490 c3         1 92X      -0.120400
     11 C4           0.7120     1.3540    -2.8720 c          1 92X       0.639300
     12 C5          -0.0060     0.1160    -2.5500 ce         1 92X      -0.361400
     13 C6           0.0030    -0.9360    -3.4340 c2         1 92X       0.193900
     14 O7          -0.6710    -2.0520    -3.1180 oh         1 92X      -0.486100
     15 C8          -0.7380     0.0010    -1.2790 c          1 92X       0.691900
     16 O11         -1.9510    -0.0940    -1.2810 o          1 92X      -0.555100
     17 C12          1.4010     0.0000     0.0000 ca         1 92X       0.020000
     18 C14          1.4180    -0.0010     2.3870 ca         1 92X      -0.011400
     19 C16         -0.6990     0.0060     1.2070 ca         1 92X       0.115700
     20 C18         -0.6740     0.0100     3.7080 c          1 92X       0.640100
     21 N19          0.0840    -0.0020     4.8260 n          1 92X       0.036400
     22 O20         -1.8880     0.0210     3.7770 o          1 92X      -0.631500
     23 O23          2.0580    -0.0080     5.7950 o          1 92X      -0.697500
     24 N24          2.0960     0.0060     3.5940 n          1 92X       0.046000
     25 C25          3.5600    -0.0090     3.6030 c3         1 92X       0.052300
     26 C27         -1.4780    -1.2040     7.9330 ca         1 92X      -0.105000
     27 C29         -1.4630     1.1930     7.9430 ca         1 92X      -0.099000
     28 C30         -0.8470     1.1970     6.7080 ca         1 92X      -0.048300
     29 C31         -0.5050     2.5040     6.0400 c3         1 92X       0.048200
     30 H1           3.1800    -0.0000     1.1620 ha         1 92X       0.122000
     31 H2          -2.5620     0.3560     2.1770 hc         1 92X       0.054033
     32 H3          -2.5680    -1.0000     1.0400 hc         1 92X       0.054033
     33 H4          -2.5710     0.6620     0.4350 hc         1 92X       0.054033
     34 H5          -0.6290    -2.1450     6.2090 ha         1 92X       0.106000
     35 H6          -2.2600    -0.0080     9.5260 ha         1 92X       0.101000
     36 H7           1.6970    -1.3830    -4.6260 hc         1 92X       0.032700
     37 H8           0.1570    -1.3980    -5.4960 hc         1 92X       0.032700
     38 H9           0.0270     1.0230    -5.4130 hc         1 92X       0.024700
     39 H10          1.6120     0.5650    -6.0610 hc         1 92X       0.024700
     40 H11          1.8770     2.3400    -4.3700 hc         1 92X       0.040200
     41 H12          2.5820     0.8250    -3.7670 hc         1 92X       0.040200
     42 H13         -1.3500    -2.2000    -3.7550 ho         1 92X       0.422000
     43 H14          1.9370    -0.0040    -0.9410 ha         1 92X       0.103000
     44 H15          3.9150    -0.9020     3.1030 h1         1 92X       0.029367
     45 H16          3.9150    -0.0030     4.6260 h1         1 92X       0.029367
     46 H17          3.9330     0.8660     3.0860 h1         1 92X       0.029367
     47 H18         -1.7270    -2.1420     8.4160 ha         1 92X       0.105000
     48 H19         -1.7000     2.1290     8.4340 ha         1 92X       0.109000
     49 H20         -0.8110     3.3260     6.6760 hc         1 92X       0.014033
     50 H21          0.5650     2.5560     5.8740 hc         1 92X       0.014033
     51 H22         -1.0210     2.5710     5.0900 hc         1 92X       0.014033
     52 C17         -2.2060     0.0060     1.2150 c3         1 92X      -0.039800
     53 O9           0.5470     2.3630    -2.2190 o          1 92X      -0.547100
@<TRIPOS>BOND
     1     1    15 1   
     2     1    17 ar  
     3     1    19 ar  
     4     2    17 ar  
     5     2    18 ar  
     6     2    30 1   
     7     3    18 ar  
     8     3    19 ar  
     9     3    20 1   
    10     4     6 ar  
    11     4    21 1   
    12     4    28 ar  
    13     5    21 1   
    14     5    23 2   
    15     5    24 1   
    16     6    26 ar  
    17     6    34 1   
    18     7    26 ar  
    19     7    27 ar  
    20     7    35 1   
    21     8     9 1   
    22     8    13 1   
    23     8    36 1   
    24     8    37 1   
    25     9    10 1   
    26     9    38 1   
    27     9    39 1   
    28    10    11 1   
    29    10    40 1   
    30    10    41 1   
    31    11    12 1   
    32    11    53 2   
    33    12    13 2   
    34    12    15 1   
    35    13    14 1   
    36    14    42 1   
    37    15    16 2   
    38    17    43 1   
    39    18    24 1   
    40    19    52 1   
    41    20    21 1   
    42    20    22 2   
    43    24    25 1   
    44    25    44 1   
    45    25    45 1   
    46    25    46 1   
    47    26    47 1   
    48    27    28 ar  
    49    27    48 1   
    50    28    29 1   
    51    29    49 1   
    52    29    50 1   
    53    29    51 1   
    54    31    52 1   
    55    32    52 1   
    56    33    52 1   
@<TRIPOS>SUBSTRUCTURE
     1 92X         1 TEMP              0 ****  ****    0 ROOT
