@<TRIPOS>MOLECULE
molecule
   41    43     1     0     0
SMALL
bcc


@<TRIPOS>ATOM
      1 C4           0.0000     0.0000     0.0000 ca         1 92Y      -0.126000
      2 C5           1.3820     0.0000     0.0000 ca         1 92Y      -0.132000
      3 C6           2.0740     0.0000     1.1970 ca         1 92Y      -0.126000
      4 C7           1.3820     0.0020     2.3940 ca         1 92Y      -0.123500
      5 C8          -0.0000     0.0030     2.3940 ca         1 92Y      -0.044300
      6 C10         -2.3090     0.0320     3.5890 c3         1 92Y       0.150100
      7 C13         -0.9390    -0.6640     6.0600 c3         1 92Y      -0.086400
      8 C15         -0.5080     1.2360     4.6410 c3         1 92Y      -0.080400
      9 C17         -4.5780    -1.1390     7.8020 c3         1 92Y       0.149100
     10 O1          -2.8130    -1.2810     3.3340 oh         1 92Y      -0.600800
     11 C3          -0.6910     0.0080     1.1980 ca         1 92Y      -0.123500
     12 C9          -0.7540     0.0050     3.7000 c3         1 92Y      -0.035700
     13 C11         -2.7930     0.5370     4.9680 c3         1 92Y      -0.081700
     14 C12         -1.4840     0.7700     5.7840 c3         1 92Y      -0.057700
     15 C14         -0.4520    -1.1700     4.6790 c3         1 92Y      -0.065400
     16 C16         -3.6660    -0.5190     5.6460 c3         1 92Y       0.167800
     17 C18         -5.0960     1.0150     6.8260 c3         1 92Y       0.149100
     18 H1          -0.5420     0.0020    -0.9380 ha         1 92Y       0.128000
     19 H2           1.9240    -0.0040    -0.9380 ha         1 92Y       0.128000
     20 H3           3.1570    -0.0000     1.1970 ha         1 92Y       0.128000
     21 H4           1.9240     0.0000     3.3320 ha         1 92Y       0.128000
     22 H5          -2.6190     0.7150     2.8070 h1         1 92Y       0.037700
     23 H6          -1.7290    -1.3020     6.4390 hc         1 92Y       0.049200
     24 H7          -0.1140    -0.6260     6.7600 hc         1 92Y       0.049200
     25 H8           0.5190     1.2850     4.9820 hc         1 92Y       0.051700
     26 H9          -0.8350     2.1630     4.1850 hc         1 92Y       0.051700
     27 H10         -4.9200    -0.7500     8.7530 h1         1 92Y       0.030700
     28 H11         -5.3990    -1.6370     7.3000 h1         1 92Y       0.030700
     29 H12         -3.7750    -1.8470     7.9690 h1         1 92Y       0.030700
     30 H13         -3.4330    -1.2470     2.6250 ho         1 92Y       0.397000
     31 H15         -1.7750     0.0080     1.1980 ha         1 92Y       0.128000
     32 H16         -3.3390     1.4660     4.8580 hc         1 92Y       0.052700
     33 H17         -1.5620     1.4290     6.6400 hc         1 92Y       0.084700
     34 H18          0.6110    -1.3760     4.7060 hc         1 92Y       0.053700
     35 H19         -1.0020    -2.0570     4.3860 hc         1 92Y       0.053700
     36 H20         -4.5440    -0.7060     5.0390 h1         1 92Y       0.046200
     37 H21         -3.1020    -1.4380     5.7570 h1         1 92Y       0.046200
     38 H22         -5.7060     0.8100     5.9540 h1         1 92Y       0.030700
     39 H23         -4.6230     1.9830     6.7160 h1         1 92Y       0.030700
     40 H24         -5.7210     1.0170     7.7110 h1         1 92Y       0.030700
     41 N2          -4.0800    -0.0350     6.9710 n3         1 92Y      -0.729600
@<TRIPOS>BOND
     1     7    15 1
     2     7    14 1
     3    15    12 1
     4     4     3 ar
     5     4     5 ar
     6    14     8 1
     7    14    13 1
     8    16    13 1
     9    16    41 1
    10    12     8 1
    11    12     5 1
    12    12     6 1
    13     3     2 ar
    14    10     6 1
    15    17    41 1
    16     5    11 ar
    17    13     6 1
    18    41     9 1
    19     2     1 ar
    20    11     1 ar
    21     1    18 1
    22     2    19 1
    23     3    20 1
    24     4    21 1
    25     6    22 1
    26     7    23 1
    27     7    24 1
    28     8    25 1
    29     8    26 1
    30     9    27 1
    31     9    28 1
    32     9    29 1
    33    10    30 1
    34    11    31 1
    35    13    32 1
    36    14    33 1
    37    15    34 1
    38    15    35 1
    39    16    36 1
    40    16    37 1
    41    17    38 1
    42    17    39 1
    43    17    40 1
@<TRIPOS>SUBSTRUCTURE
     1 92Y         1 TEMP              0 ****  ****    0 ROOT
