@<TRIPOS>MOLECULE
92Z
   15    15     1     0     0
SMALL
bcc


@<TRIPOS>ATOM
      1 O            0.0000     0.0000     0.0000 o          1 92Z      -0.508100
      2 C4           1.2160     0.0000     0.0000 c          1 92Z       0.732700
      3 C            1.9240     0.0000     1.2920 ce         1 92Z      -0.502200
      4 N            1.1990    -0.0000     2.4870 nz         1 92Z       0.315600
      5 N1           1.8600    -0.0060    -1.1750 ne         1 92Z      -0.513100
      6 C3           3.1490    -0.0060    -1.2680 c2         1 92Z       0.543200
      7 C2           3.9900    -0.0000    -0.0120 c3         1 92Z      -0.130500
      8 C1           3.2660     0.0000     1.3190 c2         1 92Z       0.107800
      9 H1           1.8340    -0.0010     3.2610 hn         1 92Z       0.210800
     10 H2           0.6230    -0.8170     2.5280 hn         1 92Z       0.210800
     11 H3           3.6250    -0.0090    -2.2420 h4         1 92Z       0.025800
     12 H4           4.6280    -0.8750    -0.0390 hc         1 92Z       0.085700
     13 H5           4.6210     0.8800    -0.0430 hc         1 92Z       0.085700
     14 H6           3.8100     0.0020     2.2550 ha         1 92Z       0.127000
     15 HN3          0.6240     0.8170     2.5290 hn         1 92Z       0.210800
@<TRIPOS>BOND
     1     1     2 2   
     2     2     3 1   
     3     2     5 1   
     4     3     4 1   
     5     3     8 2   
     6     4     9 1   
     7     4    10 1   
     8     4    15 1   
     9     5     6 2   
    10     6     7 1   
    11     6    11 1   
    12     7     8 1   
    13     7    12 1   
    14     7    13 1   
    15     8    14 1   
@<TRIPOS>SUBSTRUCTURE
     1 92Z         1 TEMP              0 ****  ****    0 ROOT
