@<TRIPOS>MOLECULE
930
   56    60     1     0     0
SMALL
bcc


@<TRIPOS>ATOM
      1 F2           0.0000     0.0000     0.0000 f          1 930      -0.123900
      2 C21          1.3510     0.0000     0.0000 ca         1 930       0.117900
      3 C15          2.0480     0.0000     1.2040 ca         1 930      -0.103400
      4 C22          3.4340     0.0020     1.1990 ca         1 930      -0.063000
      5 C26          4.1200     0.0030    -0.0010 ca         1 930      -0.108000
      6 C27          3.4260     0.0030    -1.1960 ca         1 930      -0.050300
      7 C28          4.1790     0.0050    -2.5020 c3         1 930       0.166800
      8 C7           4.2290     1.4300    -3.0930 c3         1 930      -0.023400
      9 C11          4.0860     1.2370    -4.6170 c3         1 930      -0.027400
     10 C8           3.9620    -0.2890    -4.8180 c3         1 930       0.143800
     11 N4           3.4520    -0.7980    -3.5200 n7         1 930      -0.578200
     12 C24          2.0440    -0.0040    -1.1970 ca         1 930      -0.107000
     13 N2           1.3500    -0.0010     2.4190 n          1 930      -0.029000
     14 C50          0.9710     1.1080     3.0770 c          1 930       0.599500
     15 O3           1.1780     2.2430     2.7020 o          1 930      -0.651500
     16 C12          0.2500     0.7360     4.3530 c3         1 930       0.114500
     17 C13          0.6140    -0.7500     4.5740 c3         1 930      -0.041400
     18 C14          0.9320    -1.2120     3.1330 c3         1 930       0.041000
     19 N1          -1.1980     0.8900     4.1870 n7         1 930      -0.561100
     20 S1          -1.9460     2.2770     4.6930 sy         1 930       1.042200
     21 O2          -3.3220     2.1340     4.3660 o          1 930      -0.588800
     22 O1          -1.4830     2.5250     6.0120 o          1 930      -0.588800
     23 C6          -1.3330     3.5940     3.6940 ca         1 930      -0.153500
     24 C16         -1.9860     3.9160     2.5070 ca         1 930      -0.008000
     25 C18         -1.5380     4.9270     1.7130 ca         1 930      -0.113000
     26 C17         -0.4010     5.6590     2.0930 ca         1 930       0.019000
     27 C4           0.2640     5.3310     3.3020 ca         1 930      -0.065000
     28 C5          -0.2310     4.2840     4.0980 ca         1 930       0.071000
     29 C9           0.0920     6.7090     1.2990 ca         1 930      -0.104000
     30 C1           1.1970     7.3950     1.7000 ca         1 930      -0.010600
     31 Cl1          1.8030     8.6920     0.7160 cl         1 930      -0.034400
     32 C2           1.8500     7.0730     2.8900 ca         1 930      -0.117000
     33 C3           1.4020     6.0620     3.6830 ca         1 930      -0.048000
     34 H24          1.5030    -0.0040    -2.1360 ha         1 930       0.143000
     35 H22          3.9800     0.0020     2.1350 ha         1 930       0.112000
     36 H26          5.2040     0.0040    -0.0040 ha         1 930       0.111000
     37 H28          5.1820    -0.3810    -2.3670 h1         1 930       0.016700
     38 H71C         3.4070     2.0230    -2.7120 hc         1 930       0.025200
     39 H72C         5.1780     1.8980    -2.8620 hc         1 930       0.025200
     40 H4           3.6960    -1.7630    -3.4210 hn         1 930       0.254800
     41 H111         4.9660     1.6120    -5.1260 hc         1 930       0.020200
     42 H112         3.1940     1.7360    -4.9760 hc         1 930       0.020200
     43 H81C         3.2570    -0.5070    -5.6110 h1         1 930       0.011200
     44 H82C         4.9320    -0.7200    -5.0360 h1         1 930       0.011200
     45 H141         0.0470    -1.6320     2.6710 h1         1 930       0.022700
     46 H142         1.7380    -1.9370     3.1420 h1         1 930       0.022700
     47 H12          0.6090     1.3380     5.1780 h1         1 930       0.069700
     48 H131         1.4850    -0.8430     5.2100 hc         1 930       0.037200
     49 H132        -0.2300    -1.2980     4.9770 hc         1 930       0.037200
     50 H1          -1.7400     0.1410     3.8020 hn         1 930       0.351800
     51 H16         -2.8650     3.3550     2.2120 ha         1 930       0.120000
     52 H5           0.1880     4.1060     5.0810 ha         1 930       0.121000
     53 H18         -2.0560     5.1660     0.7920 ha         1 930       0.110000
     54 H9          -0.3380     6.8970     0.3230 ha         1 930       0.119000
     55 H3           1.9190     5.8230     4.6040 ha         1 930       0.108000
     56 H2           2.7280     7.6350     3.1860 ha         1 930       0.113000
@<TRIPOS>BOND
     1     1     2 1   
     2     2     3 ar  
     3     2    12 ar  
     4     3     4 ar  
     5     3    13 1   
     6     4     5 ar  
     7     4    35 1   
     8     5     6 ar  
     9     5    36 1   
    10     6     7 1   
    11     6    12 ar  
    12     7     8 1   
    13     7    11 1   
    14     7    37 1   
    15     8     9 1   
    16     8    38 1   
    17     8    39 1   
    18     9    10 1   
    19     9    41 1   
    20     9    42 1   
    21    10    11 1   
    22    10    43 1   
    23    10    44 1   
    24    11    40 1   
    25    12    34 1   
    26    13    14 1   
    27    13    18 1   
    28    14    15 2   
    29    14    16 1   
    30    16    17 1   
    31    16    19 1   
    32    16    47 1   
    33    17    18 1   
    34    17    48 1   
    35    17    49 1   
    36    18    45 1   
    37    18    46 1   
    38    19    20 1   
    39    19    50 1   
    40    20    21 2   
    41    20    22 2   
    42    20    23 1   
    43    23    24 ar  
    44    23    28 ar  
    45    24    25 ar  
    46    24    51 1   
    47    25    26 ar  
    48    25    53 1   
    49    26    27 ar  
    50    26    29 ar  
    51    27    28 ar  
    52    27    33 ar  
    53    28    52 1   
    54    29    30 ar  
    55    29    54 1   
    56    30    31 1   
    57    30    32 ar  
    58    32    33 ar  
    59    32    56 1   
    60    33    55 1   
@<TRIPOS>SUBSTRUCTURE
     1 930         1 TEMP              0 ****  ****    0 ROOT
