@<TRIPOS>MOLECULE
molecule
   56    60     1     0     0
SMALL
bcc


@<TRIPOS>ATOM
      1 F2           0.0000     0.0000     0.0000 f          1 930      -0.133900
      2 C21          1.3510     0.0000     0.0000 ca         1 930       0.137900
      3 C15          2.0480     0.0000     1.2040 ca         1 930       0.016600
      4 C22          3.4340     0.0020     1.1990 ca         1 930      -0.098000
      5 C26          4.1200     0.0030    -0.0010 ca         1 930      -0.140000
      6 C27          3.4260     0.0030    -1.1960 ca         1 930      -0.045300
      7 C28          4.1790     0.0050    -2.5020 c3         1 930       0.189800
      8 C7           4.2290     1.4300    -3.0930 c3         1 930      -0.075400
      9 C11          4.0860     1.2370    -4.6170 c3         1 930      -0.085400
     10 C8           3.9620    -0.2890    -4.8180 c3         1 930       0.137800
     11 N4           3.4520    -0.7980    -3.5200 n7         1 930      -0.790200
     12 C24          2.0440    -0.0040    -1.1970 ca         1 930      -0.137000
     13 N2           1.3500    -0.0010     2.4190 n          1 930      -0.401000
     14 C50          0.9710     1.1080     3.0770 c          1 930       0.685500
     15 O3           1.1780     2.2430     2.7020 o          1 930      -0.601500
     16 C12          0.2500     0.7360     4.3530 c3         1 930       0.160500
     17 C13          0.6140    -0.7500     4.5740 c3         1 930      -0.103400
     18 C14          0.9320    -1.2120     3.1330 c3         1 930       0.098000
     19 N1          -1.1980     0.8900     4.1870 n7         1 930      -0.897100
     20 S1          -1.9460     2.2770     4.6930 sy         1 930       1.424200
     21 O2          -3.3220     2.1340     4.3660 o          1 930      -0.637300
     22 O1          -1.4830     2.5250     6.0120 o          1 930      -0.637300
     23 C6          -1.3330     3.5940     3.6940 ca         1 930      -0.306500
     24 C16         -1.9860     3.9160     2.5070 ca         1 930      -0.039000
     25 C18         -1.5380     4.9270     1.7130 ca         1 930      -0.130000
     26 C17         -0.4010     5.6590     2.0930 ca         1 930       0.018000
     27 C4           0.2640     5.3310     3.3020 ca         1 930      -0.056000
     28 C5          -0.2310     4.2840     4.0980 ca         1 930       0.033000
     29 C9           0.0920     6.7090     1.2990 ca         1 930      -0.125000
     30 C1           1.1970     7.3950     1.7000 ca         1 930       0.051400
     31 Cl1          1.8030     8.6920     0.7160 cl         1 930      -0.112400
     32 C2           1.8500     7.0730     2.8900 ca         1 930      -0.136000
     33 C3           1.4020     6.0620     3.6830 ca         1 930      -0.082000
     34 H24          1.5030    -0.0040    -2.1360 ha         1 930       0.172000
     35 H22          3.9800     0.0020     2.1350 ha         1 930       0.143000
     36 H26          5.2040     0.0040    -0.0040 ha         1 930       0.137000
     37 H28          5.1820    -0.3810    -2.3670 h1         1 930       0.037700
     38 H71C         3.4070     2.0230    -2.7120 hc         1 930       0.055700
     39 H72C         5.1780     1.8980    -2.8620 hc         1 930       0.055700
     40 H4           3.6960    -1.7630    -3.4210 hn         1 930       0.350800
     41 H111         4.9660     1.6120    -5.1260 hc         1 930       0.051200
     42 H112         3.1940     1.7360    -4.9760 hc         1 930       0.051200
     43 H81C         3.2570    -0.5070    -5.6110 h1         1 930       0.041700
     44 H82C         4.9320    -0.7200    -5.0360 h1         1 930       0.041700
     45 H141         0.0470    -1.6320     2.6710 h1         1 930       0.054700
     46 H142         1.7380    -1.9370     3.1420 h1         1 930       0.054700
     47 H12          0.6090     1.3380     5.1780 h1         1 930       0.101700
     48 H131         1.4850    -0.8430     5.2100 hc         1 930       0.071700
     49 H132        -0.2300    -1.2980     4.9770 hc         1 930       0.071700
     50 H1          -1.7400     0.1410     3.8020 hn         1 930       0.459800
     51 H16         -2.8650     3.3550     2.2120 ha         1 930       0.147000
     52 H5           0.1880     4.1060     5.0810 ha         1 930       0.149000
     53 H18         -2.0560     5.1660     0.7920 ha         1 930       0.138000
     54 H9          -0.3380     6.8970     0.3230 ha         1 930       0.149000
     55 H3           1.9190     5.8230     4.6040 ha         1 930       0.141000
     56 H2           2.7280     7.6350     3.1860 ha         1 930       0.143000
@<TRIPOS>BOND
     1     1     2 1
     2     2     3 ar
     3     2    12 ar
     4     3     4 ar
     5     3    13 1
     6     4     5 ar
     7     5     6 ar
     8     6     7 1
     9     6    12 ar
    10     7     8 1
    11     7    11 1
    12     8     9 1
    13     9    10 1
    14    10    11 1
    15    13    14 1
    16    13    18 1
    17    14    15 2
    18    14    16 1
    19    16    17 1
    20    16    19 1
    21    17    18 1
    22    19    20 1
    23    20    21 2
    24    20    22 2
    25    20    23 1
    26    23    24 ar
    27    23    28 ar
    28    24    25 ar
    29    25    26 ar
    30    26    27 ar
    31    26    29 ar
    32    27    28 ar
    33    27    33 ar
    34    29    30 ar
    35    30    31 1
    36    30    32 ar
    37    32    33 ar
    38    12    34 1
    39     4    35 1
    40     5    36 1
    41     7    37 1
    42     8    38 1
    43     8    39 1
    44    11    40 1
    45     9    41 1
    46     9    42 1
    47    10    43 1
    48    10    44 1
    49    18    45 1
    50    18    46 1
    51    16    47 1
    52    17    48 1
    53    17    49 1
    54    19    50 1
    55    24    51 1
    56    28    52 1
    57    25    53 1
    58    29    54 1
    59    33    55 1
    60    32    56 1
@<TRIPOS>SUBSTRUCTURE
     1 930         1 TEMP              0 ****  ****    0 ROOT
