@<TRIPOS>MOLECULE
molecule
   56    60     1     0     0
SMALL
bcc


@<TRIPOS>ATOM
      1 F1           0.0000     0.0000     0.0000 f          1 931      -0.136900
      2 C7           1.3510     0.0000     0.0000 ca         1 931       0.140900
      3 C6           2.0440     0.0000     1.1970 ca         1 931      -0.166000
      4 C1           6.5650     0.0740     2.6320 c3         1 931       0.147800
      5 N1           5.3570     0.8970     2.4120 n7         1 931      -0.807200
      6 C11          3.4270     0.0000     1.1970 ca         1 931      -0.037300
      7 C10          4.1210     0.0000     0.0020 ca         1 931      -0.110000
      8 C9           3.4360    -0.0000    -1.1970 ca         1 931      -0.100000
      9 C8           2.0480    -0.0070    -1.2030 ca         1 931       0.015600
     10 N2           1.3510    -0.0130    -2.4170 n          1 931      -0.402000
     11 C25          0.9730    -1.1270    -3.0690 c          1 931       0.684500
     12 O3           1.1800    -2.2600    -2.6870 o          1 931      -0.601500
     13 C12          0.9320     1.1950    -3.1390 c3         1 931       0.099000
     14 C13          0.6120     0.7250    -4.5750 c3         1 931      -0.104400
     15 C14          0.2520    -0.7620    -4.3480 c3         1 931       0.161500
     16 N3          -1.1950    -0.9160    -4.1820 n7         1 931      -0.897100
     17 S1          -1.9430    -2.3080    -4.6790 sy         1 931       1.423200
     18 C70          4.6740    -1.3950     2.8410 c3         1 931      -0.094400
     19 O2          -3.3180    -2.1630    -4.3540 o          1 931      -0.636300
     20 O1          -1.4790    -2.5640    -5.9970 o          1 931      -0.636300
     21 C15         -1.3290    -3.6180    -3.6730 ca         1 931      -0.301500
     22 C80          6.0730    -1.1370     3.4620 c3         1 931      -0.119400
     23 C24         -1.9670    -3.9260    -2.5100 ca         1 931       0.014000
     24 C16         -0.2000    -4.3250    -4.0810 ca         1 931      -0.025000
     25 C17          0.3000    -5.3430    -3.3270 ca         1 931      -0.119000
     26 C18         -0.3300    -5.6870    -2.1190 ca         1 931       0.020000
     27 C19          0.1570    -6.7310    -1.3140 ca         1 931      -0.124000
     28 C20         -0.4790    -7.0360    -0.1500 ca         1 931       0.049400
     29 Cl1          0.1260    -8.3280     0.8420 cl         1 931      -0.112400
     30 C23         -1.4800    -4.9700    -1.7060 ca         1 931      -0.065000
     31 C22         -2.1130    -5.3170    -0.5000 ca         1 931      -0.087000
     32 C21         -1.6080    -6.3280     0.2580 ca         1 931      -0.136000
     33 C28          4.1710     0.0270     2.5160 c3         1 931       0.201800
     34 H6           1.5030     0.0000     2.1360 ha         1 931       0.147000
     35 H12C         6.9700    -0.2590     1.6850 h1         1 931       0.053200
     36 H1           5.3090     1.6130     3.1100 hn         1 931       0.354800
     37 H801         5.9870    -0.8770     4.5100 hc         1 931       0.052200
     38 H802         6.7220    -1.9920     3.3190 hc         1 931       0.052200
     39 H28          3.5270     0.3790     3.3130 h1         1 931       0.050700
     40 H10          5.2040     0.0030     0.0060 ha         1 931       0.151000
     41 H9           3.9820    -0.0030    -2.1330 ha         1 931       0.144000
     42 H121         0.0480     1.6180    -2.6780 h1         1 931       0.054700
     43 H122         1.7380     1.9190    -3.1540 h1         1 931       0.054700
     44 H14          0.6120    -1.3670    -5.1710 h1         1 931       0.103700
     45 H131        -0.2340     1.2690    -4.9790 hc         1 931       0.071200
     46 H132         1.4820     0.8180    -5.2140 hc         1 931       0.071200
     47 H3          -1.7370    -0.1690    -3.7940 hn         1 931       0.458800
     48 H701         4.7620    -1.9850     1.9360 hc         1 931       0.058700
     49 H702         4.0210    -1.8760     3.5590 hc         1 931       0.058700
     50 H24         -2.7780    -3.3020    -2.1550 ha         1 931       0.149000
     51 H16          0.2850    -4.0650    -5.0150 ha         1 931       0.145000
     52 H17          1.1780    -5.8840    -3.6570 ha         1 931       0.139000
     53 H19          1.0960    -7.2130    -1.5610 ha         1 931       0.150000
     54 H21         -2.0950    -6.5910     1.1890 ha         1 931       0.143000
     55 H22         -2.9910    -4.7750    -0.1700 ha         1 931       0.141000
     56 H11C         7.3050     0.6360     3.1900 h1         1 931       0.053200
@<TRIPOS>BOND
     1     1     2 1
     2     2     3 ar
     3     2     9 ar
     4     3     6 ar
     5     4     5 1
     6     4    22 1
     7     5    33 1
     8     6     7 ar
     9     6    33 1
    10     7     8 ar
    11     8     9 ar
    12     9    10 1
    13    10    11 1
    14    10    13 1
    15    11    12 2
    16    11    15 1
    17    13    14 1
    18    14    15 1
    19    15    16 1
    20    16    17 1
    21    17    20 2
    22    17    19 2
    23    17    21 1
    24    18    22 1
    25    18    33 1
    26    21    23 ar
    27    21    24 ar
    28    23    30 ar
    29    24    25 ar
    30    25    26 ar
    31    26    27 ar
    32    26    30 ar
    33    27    28 ar
    34    28    29 1
    35    28    32 ar
    36    30    31 ar
    37    31    32 ar
    38     3    34 1
    39     4    56 1
    40     4    35 1
    41     5    36 1
    42    22    37 1
    43    22    38 1
    44    33    39 1
    45     7    40 1
    46     8    41 1
    47    13    42 1
    48    13    43 1
    49    15    44 1
    50    14    45 1
    51    14    46 1
    52    16    47 1
    53    18    48 1
    54    18    49 1
    55    23    50 1
    56    24    51 1
    57    25    52 1
    58    27    53 1
    59    32    54 1
    60    31    55 1
@<TRIPOS>SUBSTRUCTURE
     1 931         1 TEMP              0 ****  ****    0 ROOT
