@<TRIPOS>MOLECULE
molecule
   43    46     1     0     0
SMALL
bcc


@<TRIPOS>ATOM
      1 C1           0.0000     0.0000     0.0000 ca         1 932       0.079600
      2 N2           1.3970     0.0000     0.0000 n          1 932      -0.358000
      3 C3           2.0800     0.0000     1.1600 c          1 932       0.711500
      4 C4           1.3550    -0.0180     2.4790 c3         1 932      -0.147400
      5 C5           0.0650     0.7950     2.3760 c3         1 932      -0.034100
      6 C6          -0.6940     0.3810     1.1410 ca         1 932      -0.117300
      7 C7          -0.6990    -0.3870    -1.1370 ca         1 932      -0.171000
      8 C8          -2.0800    -0.3910    -1.1280 ca         1 932      -0.098000
      9 C9          -2.7670    -0.0100     0.0110 ca         1 932      -0.150000
     10 C10         -2.0750     0.3760     1.1430 ca         1 932      -0.094000
     11 C11          2.1250    -0.0010    -1.2710 c3         1 932       0.036000
     12 C12          2.3750     1.4200    -1.7080 c          1 932       0.632100
     13 O13          1.9830     2.3420    -1.0240 o          1 932      -0.574100
     14 N14          3.0330     1.6660    -2.8580 ns         1 932      -0.428100
     15 C15          3.2630     2.9770    -3.2620 cc         1 932       0.163500
     16 S16          2.6460     4.4070    -2.4480 ss         1 932      -0.007800
     17 C17          3.4130     5.4720    -3.6130 cc         1 932      -0.133100
     18 C18          4.0730     4.7760    -4.5290 cd         1 932      -0.078300
     19 C19          4.0070     3.3470    -4.3460 cd         1 932      -0.256500
     20 C20          4.6690     2.3820    -5.2450 cd         1 932       0.560000
     21 N21          5.5260     2.6830    -6.2500 na         1 932      -0.175400
     22 N22          5.9000     1.4590    -6.8270 nd         1 932      -0.550800
     23 C23          5.2760     0.5180    -6.1700 cc         1 932       0.575900
     24 N24          4.5360     1.0690    -5.2100 nc         1 932      -0.815000
     25 C25          4.8320     5.4220    -5.6590 c3         1 932      -0.041800
     26 O26          3.2920     0.0160     1.1430 o          1 932      -0.627500
     27 H4           1.1010    -1.0430     2.7220 hc         1 932       0.079700
     28 H4A          1.9900     0.4340     3.2310 hc         1 932       0.079700
     29 H5           0.3190     1.8440     2.2930 hc         1 932       0.064700
     30 H5A         -0.5470     0.5900     3.2460 hc         1 932       0.064700
     31 H7          -0.1610    -0.6860    -2.0290 ha         1 932       0.132000
     32 H8          -2.6250    -0.6930    -2.0140 ha         1 932       0.134000
     33 H9          -3.8500    -0.0140     0.0150 ha         1 932       0.133000
     34 H10         -2.6160     0.6740     2.0330 ha         1 932       0.135000
     35 H11          3.0730    -0.5110    -1.1450 h1         1 932       0.090200
     36 H11A         1.5380    -0.5120    -2.0240 h1         1 932       0.090200
     37 HN14         3.3310     0.9050    -3.4370 hn         1 932       0.370500
     38 H17          3.3530     6.5540    -3.5890 h4         1 932       0.174000
     39 H23          5.3530    -0.5440    -6.3710 h5         1 932       0.076100
     40 H25          4.6690     6.4930    -5.6380 hc         1 932       0.046367
     41 H25A         4.4840     5.0220    -6.6030 hc         1 932       0.046367
     42 H25B         5.8900     5.2160    -5.5480 hc         1 932       0.046367
     43 HN21         5.8310     3.5950    -6.5250 hn         1 932       0.338700
@<TRIPOS>BOND
     1     2     1 1
     2     1     6 ar
     3     1     7 ar
     4     3     2 1
     5     2    11 1
     6    26     3 2
     7     4     3 1
     8     4     5 1
     9     4    27 1
    10     4    28 1
    11     5     6 1
    12     5    29 1
    13     5    30 1
    14     6    10 ar
    15     7     8 ar
    16     7    31 1
    17     8     9 ar
    18     8    32 1
    19    10     9 ar
    20     9    33 1
    21    10    34 1
    22    12    11 1
    23    11    35 1
    24    11    36 1
    25    14    12 1
    26    12    13 2
    27    15    14 1
    28    14    37 1
    29    19    15 2
    30    15    16 1
    31    17    16 1
    32    18    17 2
    33    17    38 1
    34    25    18 1
    35    18    19 1
    36    20    19 1
    37    21    20 1
    38    20    24 2
    39    22    21 1
    40    22    23 2
    41    23    24 1
    42    23    39 1
    43    25    40 1
    44    25    41 1
    45    25    42 1
    46    21    43 1
@<TRIPOS>SUBSTRUCTURE
     1 932         1 TEMP              0 ****  ****    0 ROOT
