@<TRIPOS>MOLECULE
933
   43    45     1     0     0
SMALL
bcc


@<TRIPOS>ATOM
      1 N1           0.0000     0.0000     0.0000 nb         1 933      -0.542000
      2 C2           1.3200     0.0000     0.0000 ca         1 933       0.291900
      3 C3           2.0260     0.0000     1.1930 ca         1 933       0.270300
      4 N4           1.3840    -0.0000     2.3470 nb         1 933      -0.447000
      5 C5          -0.6610    -0.0000     1.1490 ca         1 933       0.092500
      6 C6           0.0570    -0.0010     2.3600 ca         1 933       0.312800
      7 C7          -0.9560     0.0000     3.4290 cc         1 933      -0.318000
      8 C8          -2.1720     0.0010     2.8090 cd         1 933      -0.243100
      9 N9          -2.0010    -0.0000     1.4660 na         1 933       0.294900
     10 C10          3.5330    -0.0010     1.1740 cx         1 933      -0.143000
     11 C11          4.2240    -0.7530     0.0340 cx         1 933      -0.081400
     12 C12          4.2250     0.7770     0.0520 cx         1 933      -0.081400
     13 C13         -0.7070     0.0000     4.8780 c          1 933       0.625300
     14 N14         -1.7430     0.0020     5.7390 ns         1 933      -0.210900
     15 O15          0.4350    -0.0000     5.2980 o          1 933      -0.629100
     16 C16         -1.4950     0.0040     7.1840 c3         1 933       0.030700
     17 C17         -2.6980    -0.6050     7.9080 c3         1 933      -0.084000
     18 C18         -2.9090    -2.0420     7.4280 c3         1 933       0.002567
     19 C19         -2.4380    -0.6040     9.4150 c3         1 933       0.002567
     20 C20         -3.9480     0.2240     7.6050 c3         1 933       0.002567
     21 C21         -1.2840     1.4410     7.6640 c3         1 933      -0.034100
     22 H1           1.8560     0.0000    -0.9410 h4         1 933      -0.002900
     23 H2          -3.1300     0.0020     3.3160 h4         1 933       0.143000
     24 H3          -2.7450     0.0000     0.7970 hn         1 933       0.118700
     25 H4           4.0680    -0.0120     2.1160 hc         1 933       0.075700
     26 H5           5.1660    -1.2240     0.2890 hc         1 933       0.047700
     27 H6           3.5640    -1.2110    -0.6920 hc         1 933       0.047700
     28 H7           3.5660     1.2540    -0.6630 hc         1 933       0.047700
     29 H8           5.1680     1.2410     0.3180 hc         1 933       0.047700
     30 H9          -2.6810     0.0500     5.3940 hn         1 933       0.175500
     31 H10         -0.6100    -0.5830     7.3980 h1         1 933       0.062700
     32 H11         -1.9680    -2.5760     7.4630 hc         1 933       0.008367
     33 H12         -3.2810    -2.0320     6.4100 hc         1 933       0.008367
     34 H13         -3.6290    -2.5350     8.0700 hc         1 933       0.008367
     35 H14         -3.0740    -1.3400     9.8920 hc         1 933       0.008367
     36 H15         -1.3990    -0.8500     9.6030 hc         1 933       0.008367
     37 H16         -2.6550     0.3770     9.8190 hc         1 933       0.008367
     38 H17         -4.7570    -0.0930     8.2520 hc         1 933       0.008367
     39 H18         -4.2350     0.0790     6.5710 hc         1 933       0.008367
     40 H19         -3.7360     1.2720     7.7770 hc         1 933       0.008367
     41 H20         -0.2520     1.7280     7.5020 hc         1 933       0.016700
     42 H21         -1.9350     2.1060     7.1100 hc         1 933       0.016700
     43 H22         -1.5150     1.5060     8.7200 hc         1 933       0.016700
@<TRIPOS>BOND
     1     1     2 ar  
     2     1     5 ar  
     3     2     3 ar  
     4     2    22 1   
     5     3     4 ar  
     6     3    10 1   
     7     4     6 ar  
     8     5     6 ar  
     9     5     9 1   
    10     6     7 1   
    11     7     8 2   
    12     7    13 1   
    13     8     9 1   
    14     8    23 1   
    15     9    24 1   
    16    10    11 1   
    17    10    12 1   
    18    10    25 1   
    19    11    12 1   
    20    11    26 1   
    21    11    27 1   
    22    12    28 1   
    23    12    29 1   
    24    13    14 1   
    25    13    15 2   
    26    14    16 1   
    27    14    30 1   
    28    16    17 1   
    29    16    21 1   
    30    16    31 1   
    31    17    18 1   
    32    17    19 1   
    33    17    20 1   
    34    18    32 1   
    35    18    33 1   
    36    18    34 1   
    37    19    35 1   
    38    19    36 1   
    39    19    37 1   
    40    20    38 1   
    41    20    39 1   
    42    20    40 1   
    43    21    41 1   
    44    21    42 1   
    45    21    43 1   
@<TRIPOS>SUBSTRUCTURE
     1 933         1 TEMP              0 ****  ****    0 ROOT
