@<TRIPOS>MOLECULE
molecule
   43    45     1     0     0
SMALL
bcc


@<TRIPOS>ATOM
      1 N1           0.0000     0.0000     0.0000 nb         1 933      -0.670000
      2 C2           1.3200     0.0000     0.0000 ca         1 933       0.318900
      3 C3           2.0260     0.0000     1.1930 ca         1 933       0.327300
      4 N4           1.3840    -0.0000     2.3470 nb         1 933      -0.587000
      5 C5          -0.6610    -0.0000     1.1490 ca         1 933       0.327500
      6 C6           0.0570    -0.0010     2.3600 ca         1 933       0.360800
      7 C7          -0.9560     0.0000     3.4290 cc         1 933      -0.316000
      8 C8          -2.1720     0.0010     2.8090 cd         1 933      -0.055100
      9 N9          -2.0010    -0.0000     1.4660 na         1 933      -0.263100
     10 C10          3.5330    -0.0010     1.1740 cx         1 933      -0.171000
     11 C11          4.2240    -0.7530     0.0340 cx         1 933      -0.133400
     12 C12          4.2250     0.7770     0.0520 cx         1 933      -0.133400
     13 C13         -0.7070     0.0000     4.8780 c          1 933       0.696300
     14 N14         -1.7430     0.0020     5.7390 ns         1 933      -0.587900
     15 O15          0.4350    -0.0000     5.2980 o          1 933      -0.582100
     16 C16         -1.4950     0.0040     7.1840 c3         1 933       0.128700
     17 C17         -2.6980    -0.6050     7.9080 c3         1 933      -0.085000
     18 C18         -2.9090    -2.0420     7.4280 c3         1 933      -0.082100
     19 C19         -2.4380    -0.6040     9.4150 c3         1 933      -0.082100
     20 C20         -3.9480     0.2240     7.6050 c3         1 933      -0.082100
     21 C21         -1.2840     1.4410     7.6640 c3         1 933      -0.114100
     22 H1           1.8560     0.0000    -0.9410 h4         1 933       0.034100
     23 H2          -3.1300     0.0020     3.3160 h4         1 933       0.172000
     24 H3          -2.7450     0.0000     0.7970 hn         1 933       0.308700
     25 H4           4.0680    -0.0120     2.1160 hc         1 933       0.108700
     26 H5           5.1660    -1.2240     0.2890 hc         1 933       0.077700
     27 H6           3.5640    -1.2110    -0.6920 hc         1 933       0.077700
     28 H7           3.5660     1.2540    -0.6630 hc         1 933       0.077700
     29 H8           5.1680     1.2410     0.3180 hc         1 933       0.077700
     30 H9          -2.6810     0.0500     5.3940 hn         1 933       0.305500
     31 H10         -0.6100    -0.5830     7.3980 h1         1 933       0.084700
     32 H11         -1.9680    -2.5760     7.4630 hc         1 933       0.036700
     33 H12         -3.2810    -2.0320     6.4100 hc         1 933       0.036700
     34 H13         -3.6290    -2.5350     8.0700 hc         1 933       0.036700
     35 H14         -3.0740    -1.3400     9.8920 hc         1 933       0.036700
     36 H15         -1.3990    -0.8500     9.6030 hc         1 933       0.036700
     37 H16         -2.6550     0.3770     9.8190 hc         1 933       0.036700
     38 H17         -4.7570    -0.0930     8.2520 hc         1 933       0.036700
     39 H18         -4.2350     0.0790     6.5710 hc         1 933       0.036700
     40 H19         -3.7360     1.2720     7.7770 hc         1 933       0.036700
     41 H20         -0.2520     1.7280     7.5020 hc         1 933       0.044033
     42 H21         -1.9350     2.1060     7.1100 hc         1 933       0.044033
     43 H22         -1.5150     1.5060     8.7200 hc         1 933       0.044033
@<TRIPOS>BOND
     1    18    17 1
     2    19    17 1
     3    20    17 1
     4    17    16 1
     5    16    14 1
     6    16    21 1
     7    14    13 1
     8    15    13 2
     9    11    10 1
    10    11    12 1
    11    13     7 1
    12     7     8 2
    13     7     6 1
    14     4     6 ar
    15     4     3 ar
    16     8     9 1
    17     6     5 ar
    18    10     3 1
    19    10    12 1
    20     3     2 ar
    21     9     5 1
    22     5     1 ar
    23     2     1 ar
    24     2    22 1
    25     8    23 1
    26     9    24 1
    27    10    25 1
    28    11    26 1
    29    11    27 1
    30    12    28 1
    31    12    29 1
    32    14    30 1
    33    16    31 1
    34    18    32 1
    35    18    33 1
    36    18    34 1
    37    19    35 1
    38    19    36 1
    39    19    37 1
    40    20    38 1
    41    20    39 1
    42    20    40 1
    43    21    41 1
    44    21    42 1
    45    21    43 1
@<TRIPOS>SUBSTRUCTURE
     1 933         1 TEMP              0 ****  ****    0 ROOT
