@<TRIPOS>MOLECULE
molecule
   54    56     1     0     0
SMALL
bcc


@<TRIPOS>ATOM
      1 N1           0.0000     0.0000     0.0000 nb         1 935      -0.648000
      2 C2           1.3250     0.0000     0.0000 cp         1 935       0.488800
      3 C3           2.0370     0.0000     1.2010 ca         1 935      -0.241300
      4 C4           1.3440     0.0010     2.3990 ca         1 935      -0.092000
      5 C5          -0.0420     0.0010     2.3650 ca         1 935      -0.238300
      6 C6          -0.6930    -0.0000     1.1320 ca         1 935       0.392000
      7 C7           2.0580     0.0010    -1.2890 cp         1 935      -0.195500
      8 C8           1.3560    -0.0000    -2.4930 ca         1 935      -0.005000
      9 C9           2.0400     0.0000    -3.6890 ca         1 935      -0.224300
     10 C10          3.4290     0.0010    -3.6970 ca         1 935       0.201100
     11 C11          4.1310     0.0010    -2.4980 ca         1 935      -0.236000
     12 C12          3.4520     0.0070    -1.2990 ca         1 935      -0.050000
     13 O13          4.1010     0.0010    -4.8770 os         1 935      -0.314900
     14 C14          5.5290     0.0020    -4.8100 c3         1 935       0.136400
     15 C15          6.1050     0.0010    -6.2280 c3         1 935      -0.084400
     16 C16          7.6320     0.0020    -6.1570 c3         1 935       0.165800
     17 N17          8.1850     0.0010    -7.5180 n3         1 935      -0.729600
     18 C18         -2.1700    -0.0000     1.0850 ce         1 935       0.362200
     19 N19         -2.7810    -0.0000    -0.0540 n2         1 935      -0.740100
     20 C20          1.2810     0.0000    -4.9910 c3         1 935       0.686200
     21 F21         -0.0930    -0.0010    -4.7300 f          1 935      -0.221300
     22 F22          1.6150     1.1430    -5.7260 f          1 935      -0.221300
     23 F23          1.6170    -1.1410    -5.7260 f          1 935      -0.221300
     24 C24          8.3960    -1.1840    -9.6500 c3         1 935       0.163800
     25 N25          9.8450    -0.9450    -9.6290 n3         1 935      -0.734600
     26 C26         10.1590     0.3110    -8.9330 c3         1 935       0.163800
     27 C27          9.6360     0.2400    -7.4970 c3         1 935       0.161800
     28 C28          7.8730    -1.2550    -8.2130 c3         1 935       0.161800
     29 C29         10.3980    -0.9450   -10.9900 c3         1 935       0.153100
     30 H3           3.1200    -0.0000     1.1950 ha         1 935       0.139000
     31 H4           1.8740     0.0010     3.3440 ha         1 935       0.140000
     32 H5          -0.6130     0.0010     3.2850 ha         1 935       0.139000
     33 H8           0.2720    -0.0010    -2.4880 ha         1 935       0.187000
     34 H11          5.2140     0.0040    -2.5070 ha         1 935       0.143000
     35 H12          4.0010     0.0070    -0.3650 ha         1 935       0.136000
     36 H14          5.8660    -0.8820    -4.2830 h1         1 935       0.037200
     37 H14A         5.8650     0.8870    -4.2840 h1         1 935       0.037200
     38 H15          5.7680    -0.8830    -6.7540 hc         1 935       0.067700
     39 H15A         5.7670     0.8860    -6.7550 hc         1 935       0.067700
     40 H16          7.9690     0.8870    -5.6310 h1         1 935       0.033700
     41 H16A         7.9700    -0.8820    -5.6300 h1         1 935       0.033700
     42 H24          7.9040    -0.3720   -10.1720 h1         1 935       0.041700
     43 H24A         8.1930    -2.1210   -10.1540 h1         1 935       0.041700
     44 H26         11.2330     0.4560    -8.9190 h1         1 935       0.041700
     45 H26A         9.6850     1.1370    -9.4490 h1         1 935       0.041700
     46 H27         10.1280    -0.5720    -6.9740 h1         1 935       0.041950
     47 H27A         9.8400     1.1770    -6.9930 h1         1 935       0.041950
     48 H28          8.3480    -2.0800    -7.6970 h1         1 935       0.041950
     49 H28A         6.7990    -1.4010    -8.2280 h1         1 935       0.041950
     50 H29         10.1810    -1.8930   -11.4670 h1         1 935       0.032367
     51 H29A        11.4710    -0.8020   -10.9430 h1         1 935       0.032367
     52 H29B         9.9510    -0.1420   -11.5620 h1         1 935       0.032367
     53 H18         -2.7420     0.0000     2.0050 h4         1 935      -0.030200
     54 HN19        -3.7810    -0.0000    -0.0860 hn         1 935       0.397400
@<TRIPOS>BOND
     1     1     2 ar
     2     1     6 ar
     3     2     3 ar
     4     2     7 1
     5     3     4 ar
     6     3    30 1
     7     4     5 ar
     8     4    31 1
     9     5     6 ar
    10     5    32 1
    11     6    18 1
    12     7     8 ar
    13     7    12 ar
    14     8     9 ar
    15     8    33 1
    16     9    10 ar
    17     9    20 1
    18    10    11 ar
    19    10    13 1
    20    11    12 ar
    21    11    34 1
    22    12    35 1
    23    13    14 1
    24    14    15 1
    25    14    36 1
    26    14    37 1
    27    15    16 1
    28    15    38 1
    29    15    39 1
    30    16    17 1
    31    16    40 1
    32    16    41 1
    33    17    27 1
    34    17    28 1
    35    18    19 2
    36    18    53 1
    37    19    54 1
    38    20    21 1
    39    20    22 1
    40    20    23 1
    41    24    25 1
    42    24    28 1
    43    24    42 1
    44    24    43 1
    45    25    26 1
    46    25    29 1
    47    26    27 1
    48    26    44 1
    49    26    45 1
    50    27    46 1
    51    27    47 1
    52    28    48 1
    53    28    49 1
    54    29    50 1
    55    29    51 1
    56    29    52 1
@<TRIPOS>SUBSTRUCTURE
     1 935         1 TEMP              0 ****  ****    0 ROOT
