@<TRIPOS>MOLECULE
molecule
   42    44     1     0     0
SMALL
bcc


@<TRIPOS>ATOM
      1 C1           0.0000     0.0000     0.0000 cc         1 936      -0.337200
      2 C2           1.4690     0.0000     0.0000 c          1 936       0.619900
      3 C3           2.2080     0.0000     1.2720 cc         1 936      -0.170900
      4 C4           1.5080     0.0000     2.4710 cd         1 936      -0.181600
      5 C5           0.0320     0.0060     2.4570 c          1 936       0.605900
      6 C6          -0.6880    -0.0000     1.1590 cd         1 936       0.073900
      7 N7           3.5410    -0.0010     1.5740 na         1 936       0.016900
      8 C8           3.6900    -0.0010     2.9210 cc         1 936      -0.075600
      9 C9           2.4660    -0.0000     3.5040 cd         1 936      -0.124300
     10 O10         -0.5890     0.0120     3.5000 o          1 936      -0.482100
     11 O11          2.0760    -0.0010    -1.0550 o          1 936      -0.537100
     12 C12          4.6330    -0.0010     0.5980 c3         1 936       0.019600
     13 C19          2.1820     0.0010     4.9840 c3         1 936       0.188700
     14 O20          2.0940     1.3480     5.4510 os         1 936      -0.278900
     15 C24          1.8380     1.2860     6.7850 ca         1 936       0.167100
     16 C25          1.6970     2.4530     7.5210 ca         1 936      -0.201500
     17 C26          1.4370     2.3870     8.8760 ca         1 936      -0.032000
     18 C27          1.3170     1.1590     9.4990 ca         1 936      -0.198200
     19 C28          1.4570    -0.0070     8.7670 ca         1 936      -0.032000
     20 C29          1.7110     0.0540     7.4110 ca         1 936      -0.201500
     21 N34          1.0390     1.0900    10.9510 no         1 936       0.299200
     22 O35          0.9160     2.1160    11.5960 o          1 936      -0.212000
     23 O36          0.9330     0.0090    11.5010 o          1 936      -0.212000
     24 C37          5.0070    -0.0000     3.6550 c3         1 936      -0.026800
     25 O44         -2.0410     0.0010     1.1390 os         1 936      -0.255900
     26 C45         -2.4340     0.1220    -0.2290 c3         1 936       0.093700
     27 H11         -0.5360    -0.0040    -0.9420 ha         1 936       0.174000
     28 H121         5.4910     0.5110     1.0160 h1         1 936       0.067367
     29 H122         4.9030    -1.0220     0.3580 h1         1 936       0.067367
     30 H123         4.3120     0.5080    -0.3030 h1         1 936       0.067367
     31 H191         2.9820    -0.5100     5.5060 h1         1 936       0.058700
     32 H192         1.2450    -0.5080     5.1730 h1         1 936       0.058700
     33 H251         1.7910     3.4160     7.0330 ha         1 936       0.159500
     34 H261         1.3270     3.2980     9.4510 ha         1 936       0.167000
     35 H281         1.3600    -0.9680     9.2570 ha         1 936       0.167000
     36 H291         1.8200    -0.8590     6.8390 ha         1 936       0.159500
     37 H371         5.7890    -0.3550     2.9930 hc         1 936       0.055033
     38 H372         4.9410    -0.6530     4.5170 hc         1 936       0.055033
     39 H373         5.2380     1.0060     3.9810 hc         1 936       0.055033
     40 H451        -3.5130     0.2010    -0.2900 h1         1 936       0.054033
     41 H452        -2.1050    -0.7520    -0.7780 h1         1 936       0.054033
     42 H453        -1.9830     1.0090    -0.6580 h1         1 936       0.054033
@<TRIPOS>BOND
     1     1     2 1
     2     1     6 2
     3     1    27 1
     4     2     3 1
     5     2    11 2
     6     3     4 2
     7     3     7 1
     8     4     5 1
     9     4     9 1
    10     5     6 1
    11     5    10 2
    12     6    25 1
    13     7     8 1
    14     7    12 1
    15     8     9 2
    16     8    24 1
    17     9    13 1
    18    12    28 1
    19    12    29 1
    20    12    30 1
    21    13    14 1
    22    13    31 1
    23    13    32 1
    24    14    15 1
    25    15    16 ar
    26    15    20 ar
    27    16    17 ar
    28    16    33 1
    29    17    18 ar
    30    17    34 1
    31    18    19 ar
    32    18    21 1
    33    19    20 ar
    34    19    35 1
    35    20    36 1
    36    21    22 1
    37    21    23 1
    38    24    37 1
    39    24    38 1
    40    24    39 1
    41    25    26 1
    42    26    40 1
    43    26    41 1
    44    26    42 1
@<TRIPOS>SUBSTRUCTURE
     1 936         1 TEMP              0 ****  ****    0 ROOT
