@<TRIPOS>MOLECULE
molecule
   66    70     1     0     0
SMALL
bcc


@<TRIPOS>ATOM
      1 N1           0.0000     0.0000     0.0000 nb         1 937      -0.761000
      2 C2           1.3250     0.0000     0.0000 ca         1 937       0.951900
      3 N3           2.0190     0.0000     1.1290 nb         1 937      -0.797000
      4 C4          -0.6900     0.0180     1.1310 ca         1 937       0.515200
      5 C5          -0.0100     0.0360     2.3340 ca         1 937      -0.375900
      6 C6           1.3930    -0.0010     2.2950 ca         1 937       0.562800
      7 C7          -0.0600    -0.6260     4.7640 c3         1 937      -0.015100
      8 C8          -0.7520     0.1370     3.6340 c3         1 937      -0.018100
      9 C9           1.4110    -0.3330     4.7470 cc         1 937      -0.152600
     10 C10          2.0990    -0.0510     3.5870 cd         1 937      -0.169800
     11 N11          3.3890     0.1370     3.9280 na         1 937       0.237400
     12 N12          3.5240     0.0070     5.2050 nd         1 937      -0.533800
     13 C13          2.3600    -0.2780     5.7690 cc         1 937       0.188800
     14 N14          2.0010     0.0000    -1.2090 nu         1 937      -0.729300
     15 C15          2.1110    -0.4960     7.2090 c          1 937       0.452600
     16 O16          0.9900    -0.7510     7.6000 o          1 937      -0.417100
     17 C17          1.2900    -0.1230    -2.4090 ca         1 937       0.164600
     18 C18          0.0500    -0.7460    -2.4210 ca         1 937      -0.140000
     19 C19         -0.6530    -0.8670    -3.6110 ca         1 937       0.112600
     20 C20         -0.1140    -0.3660    -4.7890 ca         1 937      -0.159000
     21 C21          1.1210     0.2530    -4.7790 ca         1 937      -0.149000
     22 C22          1.8240     0.3820    -3.5930 ca         1 937       0.061100
     23 O23          3.0370     0.9970    -3.5830 os         1 937      -0.356900
     24 C24          3.5230     1.4910    -4.8320 c3         1 937       0.799700
     25 F25          2.6270     2.4370    -5.3410 f          1 937      -0.201967
     26 F26          4.7740     2.0900    -4.6430 f          1 937      -0.201967
     27 F27          3.6460     0.4310    -5.7370 f          1 937      -0.201967
     28 N28          3.1290    -0.4110     8.0890 nz         1 937      -0.675400
     29 C29          4.4740     0.4420     2.9910 c3         1 937       0.040300
     30 C30          4.6020     1.9590     2.8350 c3         1 937       0.128400
     31 O31          5.6590     2.2560     1.9210 oh         1 937      -0.594800
     32 N32         -1.9030    -1.4940    -3.6240 nh         1 937      -0.595000
     33 C33         -2.4680    -1.5140    -4.9810 c3         1 937       0.163800
     34 C34         -3.8670    -2.1350    -4.9400 c3         1 937       0.161300
     35 N35         -3.7790    -3.4940    -4.3880 n3         1 937      -0.733600
     36 C36         -3.2150    -3.4750    -3.0330 c3         1 937       0.161300
     37 C37         -1.8170    -2.8540    -3.0730 c3         1 937       0.163800
     38 C38         -5.0930    -4.1540    -4.4030 c3         1 937       0.153100
     39 H4          -1.7590     0.1900     1.1100 h4         1 937       0.048100
     40 H14          2.9970     0.0900    -1.2250 hn         1 937       0.481800
     41 H81C        -1.7280    -0.3090     3.4890 hc         1 937       0.068700
     42 H82C        -0.7790     1.1830     3.9150 hc         1 937       0.068700
     43 H71C        -0.4700    -0.2930     5.7100 hc         1 937       0.075200
     44 H72C        -0.2050    -1.6870     4.6070 hc         1 937       0.075200
     45 H291         4.2550    -0.0030     2.0280 h1         1 937       0.111200
     46 H292         5.4040     0.0390     3.3730 h1         1 937       0.111200
     47 H281         3.5210     0.5090     8.0590 hn         1 937       0.480467
     48 H282         3.8340    -1.0810     7.8500 hn         1 937       0.480467
     49 H18         -0.3690    -1.1370    -1.5010 ha         1 937       0.179000
     50 H20         -0.6620    -0.4630    -5.7190 ha         1 937       0.152000
     51 H21          1.5370     0.6440    -5.7000 ha         1 937       0.158000
     52 H301         4.8210     2.4040     3.7980 h1         1 937       0.036700
     53 H302         3.6710     2.3620     2.4540 h1         1 937       0.036700
     54 H31          5.8840     3.1690     1.9870 ho         1 937       0.426000
     55 H331        -2.5350    -0.5010    -5.3580 h1         1 937       0.050450
     56 H332        -1.8310    -2.1050    -5.6280 h1         1 937       0.050450
     57 H371        -1.4120    -2.8110    -2.0690 h1         1 937       0.050450
     58 H372        -1.1730    -3.4570    -3.7020 h1         1 937       0.050450
     59 H341        -4.5100    -1.5320    -4.3110 h1         1 937       0.044950
     60 H342        -4.2710    -2.1790    -5.9440 h1         1 937       0.044950
     61 H361        -3.1480    -4.4880    -2.6550 h1         1 937       0.044950
     62 H362        -3.8520    -2.8840    -2.3860 h1         1 937       0.044950
     63 H381        -4.9950    -5.1620    -4.0200 h1         1 937       0.035700
     64 H382        -5.7830    -3.5970    -3.7810 h1         1 937       0.035700
     65 H383        -5.4680    -4.1880    -5.4180 h1         1 937       0.035700
     66 H283         2.7910    -0.6040     9.0110 hn         1 937       0.480467
@<TRIPOS>BOND
     1     1     2 ar
     2     1     4 ar
     3     2     3 ar
     4     2    14 1
     5     3     6 ar
     6     4     5 ar
     7     5     6 ar
     8     5     8 1
     9     6    10 1
    10     7     8 1
    11     7     9 1
    12     9    10 2
    13     9    13 1
    14    10    11 1
    15    11    12 1
    16    11    29 1
    17    12    13 2
    18    13    15 1
    19    14    17 1
    20    15    16 2
    21    15    28 1
    22    17    18 ar
    23    17    22 ar
    24    18    19 ar
    25    19    20 ar
    26    19    32 1
    27    20    21 ar
    28    21    22 ar
    29    22    23 1
    30    23    24 1
    31    24    25 1
    32    24    26 1
    33    24    27 1
    34    29    30 1
    35    30    31 1
    36    32    33 1
    37    32    37 1
    38    33    34 1
    39    34    35 1
    40    35    36 1
    41    35    38 1
    42    36    37 1
    43     4    39 1
    44    14    40 1
    45     8    41 1
    46     8    42 1
    47     7    43 1
    48     7    44 1
    49    29    45 1
    50    29    46 1
    51    28    47 1
    52    28    48 1
    53    18    49 1
    54    20    50 1
    55    21    51 1
    56    30    52 1
    57    30    53 1
    58    31    54 1
    59    33    55 1
    60    33    56 1
    61    37    57 1
    62    37    58 1
    63    34    59 1
    64    34    60 1
    65    36    61 1
    66    36    62 1
    67    38    63 1
    68    38    64 1
    69    38    65 1
    70    66    28 1
@<TRIPOS>SUBSTRUCTURE
     1 937         1 TEMP              0 ****  ****    0 ROOT
