@<TRIPOS>MOLECULE
937
   66    70     1     0     0
SMALL
bcc


@<TRIPOS>ATOM
      1 N1           0.0000     0.0000     0.0000 nb         1 937      -0.659000
      2 C2           1.3250     0.0000     0.0000 ca         1 937       0.707900
      3 N3           2.0190     0.0000     1.1290 nb         1 937      -0.693000
      4 C4          -0.6900     0.0180     1.1310 ca         1 937       0.507200
      5 C5          -0.0100     0.0360     2.3340 ca         1 937      -0.387900
      6 C6           1.3930    -0.0010     2.2950 ca         1 937       0.534800
      7 C7          -0.0600    -0.6260     4.7640 c3         1 937       0.051900
      8 C8          -0.7520     0.1370     3.6340 c3         1 937       0.060900
      9 C9           1.4110    -0.3330     4.7470 cc         1 937      -0.122600
     10 C10          2.0990    -0.0510     3.5870 cd         1 937      -0.377800
     11 N11          3.3890     0.1370     3.9280 na         1 937       0.761400
     12 N12          3.5240     0.0070     5.2050 nd         1 937      -0.683800
     13 C13          2.3600    -0.2780     5.7690 cc         1 937       0.163800
     14 N14          2.0010     0.0000    -1.2090 nu         1 937      -0.244300
     15 C15          2.1110    -0.4960     7.2090 c          1 937       0.298600
     16 O16          0.9900    -0.7510     7.6000 o          1 937      -0.444100
     17 C17          1.2900    -0.1230    -2.4090 ca         1 937      -0.007400
     18 C18          0.0500    -0.7460    -2.4210 ca         1 937      -0.128000
     19 C19         -0.6530    -0.8670    -3.6110 ca         1 937       0.032600
     20 C20         -0.1140    -0.3660    -4.7890 ca         1 937      -0.128000
     21 C21          1.1210     0.2530    -4.7790 ca         1 937      -0.141000
     22 C22          1.8240     0.3820    -3.5930 ca         1 937       0.079100
     23 O23          3.0370     0.9970    -3.5830 os         1 937      -0.330900
     24 C24          3.5230     1.4910    -4.8320 c3         1 937       0.763700
     25 F25          2.6270     2.4370    -5.3410 f          1 937      -0.194300
     26 F26          4.7740     2.0900    -4.6430 f          1 937      -0.194300
     27 F27          3.6460     0.4310    -5.7370 f          1 937      -0.194300
     28 N28          3.1290    -0.4110     8.0890 nz         1 937       0.208600
     29 C29          4.4740     0.4420     2.9910 c3         1 937      -0.099700
     30 C30          4.6020     1.9590     2.8350 c3         1 937       0.225400
     31 O31          5.6590     2.2560     1.9210 oh         1 937      -0.573800
     32 N32         -1.9030    -1.4940    -3.6240 nh         1 937      -0.360000
     33 C33         -2.4680    -1.5140    -4.9810 c3         1 937       0.134800
     34 C34         -3.8670    -2.1350    -4.9400 c3         1 937       0.153800
     35 N35         -3.7790    -3.4940    -4.3880 n3         1 937      -0.548600
     36 C36         -3.2150    -3.4750    -3.0330 c3         1 937       0.153800
     37 C37         -1.8170    -2.8540    -3.0730 c3         1 937       0.134800
     38 C38         -5.0930    -4.1540    -4.4030 c3         1 937       0.190100
     39 H4          -1.7590     0.1900     1.1100 h4         1 937      -0.001900
     40 H14          2.9970     0.0900    -1.2250 hn         1 937       0.301800
     41 H81C        -1.7280    -0.3090     3.4890 hc         1 937       0.033200
     42 H82C        -0.7790     1.1830     3.9150 hc         1 937       0.033200
     43 H71C        -0.4700    -0.2930     5.7100 hc         1 937       0.041200
     44 H72C        -0.2050    -1.6870     4.6070 hc         1 937       0.041200
     45 H291         4.2550    -0.0030     2.0280 h1         1 937       0.079200
     46 H292         5.4040     0.0390     3.3730 h1         1 937       0.079200
     47 H281         3.5210     0.5090     8.0590 hn         1 937       0.246133
     48 H282         3.8340    -1.0810     7.8500 hn         1 937       0.246133
     49 H18         -0.3690    -1.1370    -1.5010 ha         1 937       0.160000
     50 H20         -0.6620    -0.4630    -5.7190 ha         1 937       0.133000
     51 H21          1.5370     0.6440    -5.7000 ha         1 937       0.134000
     52 H301         4.8210     2.4040     3.7980 h1         1 937      -0.004300
     53 H302         3.6710     2.3620     2.4540 h1         1 937      -0.004300
     54 H31          5.8840     3.1690     1.9870 ho         1 937       0.410000
     55 H331        -2.5350    -0.5010    -5.3580 h1         1 937       0.024450
     56 H332        -1.8310    -2.1050    -5.6280 h1         1 937       0.024450
     57 H371        -1.4120    -2.8110    -2.0690 h1         1 937       0.024450
     58 H372        -1.1730    -3.4570    -3.7020 h1         1 937       0.024450
     59 H341        -4.5100    -1.5320    -4.3110 h1         1 937       0.016450
     60 H342        -4.2710    -2.1790    -5.9440 h1         1 937       0.016450
     61 H361        -3.1480    -4.4880    -2.6550 h1         1 937       0.016450
     62 H362        -3.8520    -2.8840    -2.3860 h1         1 937       0.016450
     63 H381        -4.9950    -5.1620    -4.0200 h1         1 937       0.003033
     64 H382        -5.7830    -3.5970    -3.7810 h1         1 937       0.003033
     65 H383        -5.4680    -4.1880    -5.4180 h1         1 937       0.003033
     66 H283         2.7910    -0.6040     9.0110 hn         1 937       0.246133
@<TRIPOS>BOND
     1     1     2 ar  
     2     1     4 ar  
     3     2     3 ar  
     4     2    14 1   
     5     3     6 ar  
     6     4     5 ar  
     7     4    39 1   
     8     5     6 ar  
     9     5     8 1   
    10     6    10 1   
    11     7     8 1   
    12     7     9 1   
    13     7    43 1   
    14     7    44 1   
    15     8    41 1   
    16     8    42 1   
    17     9    10 2   
    18     9    13 1   
    19    10    11 1   
    20    11    12 1   
    21    11    29 1   
    22    12    13 2   
    23    13    15 1   
    24    14    17 1   
    25    14    40 1   
    26    15    16 2   
    27    15    28 1   
    28    17    18 ar  
    29    17    22 ar  
    30    18    19 ar  
    31    18    49 1   
    32    19    20 ar  
    33    19    32 1   
    34    20    21 ar  
    35    20    50 1   
    36    21    22 ar  
    37    21    51 1   
    38    22    23 1   
    39    23    24 1   
    40    24    25 1   
    41    24    26 1   
    42    24    27 1   
    43    28    47 1   
    44    28    48 1   
    45    28    66 1   
    46    29    30 1   
    47    29    45 1   
    48    29    46 1   
    49    30    31 1   
    50    30    52 1   
    51    30    53 1   
    52    31    54 1   
    53    32    33 1   
    54    32    37 1   
    55    33    34 1   
    56    33    55 1   
    57    33    56 1   
    58    34    35 1   
    59    34    59 1   
    60    34    60 1   
    61    35    36 1   
    62    35    38 1   
    63    36    37 1   
    64    36    61 1   
    65    36    62 1   
    66    37    57 1   
    67    37    58 1   
    68    38    63 1   
    69    38    64 1   
    70    38    65 1   
@<TRIPOS>SUBSTRUCTURE
     1 937         1 TEMP              0 ****  ****    0 ROOT
