@<TRIPOS>MOLECULE
938
   12    12     1     0     0
SMALL
bcc


@<TRIPOS>ATOM
      1 C1           0.0000     0.0000     0.0000 ca         1 938       0.434200
      2 C2           0.0170     0.0110     2.2980 ca         1 938       0.633900
      3 C3           2.0520     0.0000     1.2280 ca         1 938       0.414300
      4 Cl           3.7860    -0.0000     1.2970 cl         1 938      -0.064000
      5 C            1.3910     0.0000     0.0000 ca         1 938      -0.199000
      6 N            2.1080     0.0000    -1.2000 nv         1 938      -0.538200
      7 N2           1.3350     0.0110     2.3410 nb         1 938      -0.610000
      8 N1          -0.6430     0.0050     1.1570 nb         1 938      -0.625000
      9 H1          -0.5490    -0.0020    -0.9340 h4         1 938      -0.008900
     10 H2          -0.5400     0.0170     3.2270 h5         1 938       0.003100
     11 H3           2.3580    -0.8670    -1.6340 hn         1 938       0.279800
     12 H4           2.3580     0.8670    -1.6340 hn         1 938       0.279800
@<TRIPOS>BOND
     1     1     5 ar  
     2     1     8 ar  
     3     1     9 1   
     4     2     7 ar  
     5     2     8 ar  
     6     2    10 1   
     7     3     4 1   
     8     3     5 ar  
     9     3     7 ar  
    10     5     6 1   
    11     6    11 1   
    12     6    12 1   
@<TRIPOS>SUBSTRUCTURE
     1 938         1 TEMP              0 ****  ****    0 ROOT
