@<TRIPOS>MOLECULE
molecule
   12    12     1     0     0
SMALL
bcc


@<TRIPOS>ATOM
      1 C1           0.0000     0.0000     0.0000 ca         1 938       0.447200
      2 C2           0.0170     0.0110     2.2980 ca         1 938       0.687900
      3 C3           2.0520     0.0000     1.2280 ca         1 938       0.536300
      4 Cl           3.7860    -0.0000     1.2970 cl         1 938      -0.140000
      5 C            1.3910     0.0000     0.0000 ca         1 938      -0.070000
      6 N            2.1080     0.0000    -1.2000 nv         1 938      -0.975200
      7 N2           1.3350     0.0110     2.3410 nb         1 938      -0.734000
      8 N1          -0.6430     0.0050     1.1570 nb         1 938      -0.734000
      9 H1          -0.5490    -0.0020    -0.9340 h4         1 938       0.040100
     10 H2          -0.5400     0.0170     3.2270 h5         1 938       0.066100
     11 H3           2.3580    -0.8670    -1.6340 hn         1 938       0.436800
     12 H4           2.3580     0.8670    -1.6340 hn         1 938       0.436800
@<TRIPOS>BOND
     1     2     8 ar
     2     2     7 ar
     3     8     1 ar
     4     7     3 ar
     5     1     5 ar
     6     3     5 ar
     7     3     4 1
     8     5     6 1
     9     1     9 1
    10     2    10 1
    11     6    11 1
    12     6    12 1
@<TRIPOS>SUBSTRUCTURE
     1 938         1 TEMP              0 ****  ****    0 ROOT
