@<TRIPOS>MOLECULE
molecule
   59    62     1     0     0
SMALL
bcc


@<TRIPOS>ATOM
      1 N1           0.0000     0.0000     0.0000 nb         1 939      -0.762000
      2 C2           1.3260     0.0000     0.0000 ca         1 939       0.953900
      3 N3           2.0220     0.0000     1.1260 nb         1 939      -0.821000
      4 C4           1.4010    -0.0000     2.3070 ca         1 939       0.558800
      5 C5           0.0010     0.0010     2.3370 ca         1 939      -0.415600
      6 C6          -0.6830     0.0010     1.1350 ca         1 939       0.516200
      7 N7           2.0010     0.0000    -1.2090 nu         1 939      -0.737300
      8 C8           2.1780    -0.0010     3.5630 cc         1 939      -0.147800
      9 N9           3.5450     0.1010     3.6620 na         1 939       0.038900
     10 C10          3.8990     0.0660     4.9600 cc         1 939      -0.114300
     11 C11          2.7540    -0.0600     5.7180 cd         1 939      -0.307600
     12 C12          1.6620    -0.0950     4.8160 cd         1 939      -0.081000
     13 C13          2.6800    -0.1380     7.1880 c          1 939       0.533700
     14 N14          3.8080    -0.0860     7.9230 nz         1 939      -0.676400
     15 O15          1.6000    -0.2480     7.7370 o          1 939      -0.429100
     16 C16          1.2880     0.1180    -2.4090 ca         1 939       0.163600
     17 C17          1.7490    -0.5160    -3.5610 ca         1 939       0.065100
     18 C18          1.0430    -0.3980    -4.7450 ca         1 939      -0.152000
     19 C19         -0.1200     0.3490    -4.7880 ca         1 939      -0.156000
     20 C20         -0.5840     0.9810    -3.6420 ca         1 939       0.110600
     21 C21          0.1170     0.8620    -2.4510 ca         1 939      -0.127000
     22 O22          2.8940    -1.2500    -3.5210 os         1 939      -0.356900
     23 C23          3.3090    -1.8720    -4.7380 c3         1 939       0.798700
     24 F24          3.5250    -0.8910    -5.7130 f          1 939      -0.201967
     25 F25          4.4960    -2.5810    -4.5200 f          1 939      -0.201967
     26 F26          2.3130    -2.7520    -5.1750 f          1 939      -0.201967
     27 C27          4.4700     0.2270     2.5330 c3         1 939       0.024600
     28 N28         -1.7610     1.7360    -3.6890 nh         1 939      -0.595000
     29 C29         -2.3410     1.7250    -5.0390 c3         1 939       0.163800
     30 C30         -3.6650     2.4940    -5.0280 c3         1 939       0.161300
     31 N31         -3.4270     3.8700    -4.5720 n3         1 939      -0.733600
     32 C32         -2.8460     3.8800    -3.2220 c3         1 939       0.161300
     33 C33         -1.5220     3.1130    -3.2330 c3         1 939       0.163800
     34 C34         -4.6620     4.6630    -4.6200 c3         1 939       0.153100
     35 H6          -1.7660     0.0010     1.1220 h4         1 939       0.048100
     36 H7           3.0000    -0.0500    -1.2240 hn         1 939       0.474800
     37 H5          -0.5330     0.0010     3.2790 ha         1 939       0.150000
     38 H12          0.6140    -0.1870     5.0760 ha         1 939       0.189000
     39 H10          4.9110     0.1240     5.3440 h4         1 939       0.162000
     40 H271         4.2260     1.1150     1.9630 h1         1 939       0.080033
     41 H272         5.4850     0.3040     2.9050 h1         1 939       0.080033
     42 H273         4.3840    -0.6460     1.8970 h1         1 939       0.080033
     43 H141         3.5760    -0.1510     8.8950 hn         1 939       0.473800
     44 H142         4.2800     0.7790     7.7510 hn         1 939       0.473800
     45 H21         -0.2440     1.3550    -1.5570 ha         1 939       0.168000
     46 H18          1.4020    -0.8910    -5.6410 ha         1 939       0.158000
     47 H19         -0.6700     0.4410    -5.7170 ha         1 939       0.153000
     48 H291        -2.5210     0.7020    -5.3450 h1         1 939       0.050700
     49 H292        -1.6550     2.2000    -5.7300 h1         1 939       0.050700
     50 H331        -1.1090     3.0940    -2.2310 h1         1 939       0.050700
     51 H332        -0.8280     3.6010    -3.9070 h1         1 939       0.050700
     52 H301        -4.3590     2.0060    -4.3540 h1         1 939       0.044950
     53 H302        -4.0780     2.5130    -6.0290 h1         1 939       0.044950
     54 H321        -2.6660     4.9040    -2.9150 h1         1 939       0.044950
     55 H322        -3.5320     3.4050    -2.5310 h1         1 939       0.044950
     56 H341        -4.4510     5.6790    -4.3110 h1         1 939       0.036033
     57 H342        -5.0500     4.6660    -5.6310 h1         1 939       0.036033
     58 H343        -5.3970     4.2280    -3.9530 h1         1 939       0.036033
     59 H143         4.4080    -0.8450     7.6680 hn         1 939       0.473800
@<TRIPOS>BOND
     1     1     2 ar
     2     1     6 ar
     3     2     3 ar
     4     2     7 1
     5     3     4 ar
     6     4     5 ar
     7     4     8 1
     8     5     6 ar
     9     7    16 1
    10     8     9 1
    11     8    12 2
    12     9    10 1
    13     9    27 1
    14    10    11 2
    15    11    12 1
    16    11    13 1
    17    13    14 1
    18    13    15 2
    19    16    17 ar
    20    16    21 ar
    21    17    18 ar
    22    17    22 1
    23    18    19 ar
    24    19    20 ar
    25    20    21 ar
    26    20    28 1
    27    22    23 1
    28    23    24 1
    29    23    25 1
    30    23    26 1
    31    28    29 1
    32    28    33 1
    33    29    30 1
    34    30    31 1
    35    31    32 1
    36    31    34 1
    37    32    33 1
    38     6    35 1
    39     7    36 1
    40     5    37 1
    41    12    38 1
    42    10    39 1
    43    27    40 1
    44    27    41 1
    45    27    42 1
    46    14    43 1
    47    14    44 1
    48    21    45 1
    49    18    46 1
    50    19    47 1
    51    29    48 1
    52    29    49 1
    53    33    50 1
    54    33    51 1
    55    30    52 1
    56    30    53 1
    57    32    54 1
    58    32    55 1
    59    34    56 1
    60    34    57 1
    61    34    58 1
    62    59    14 1
@<TRIPOS>SUBSTRUCTURE
     1 939         1 TEMP              0 ****  ****    0 ROOT
