@<TRIPOS>MOLECULE
molecule
   36    38     1     0     0
SMALL
bcc


@<TRIPOS>ATOM
      1 O21          0.0000     0.0000     0.0000 o          1 93A      -0.626800
      2 S16          1.4210     0.0000     0.0000 s6         1 93A       1.535500
      3 O20          2.2440     0.9660    -0.6380 o          1 93A      -0.626800
      4 N17          1.8740     0.0000     1.5940 ns         1 93A      -0.672300
      5 C18          1.9660    -1.1550     2.2880 c          1 93A       0.655000
      6 O19          2.2070    -1.1320     3.4810 o          1 93A      -0.592500
      7 C13          1.7770    -2.4320     1.6010 cc         1 93A       0.186800
      8 N12          1.6110    -3.6700     2.1200 nc         1 93A      -0.633000
      9 C11          1.4900    -4.5280     1.1460 cd         1 93A       0.444400
     10 N15          1.8750    -1.4740    -0.6300 nu         1 93A      -0.721500
     11 C14          1.7500    -2.5640     0.2130 cd         1 93A       0.030000
     12 N10          1.5710    -3.8740    -0.0530 na         1 93A      -0.155900
     13 C5           1.4860    -4.4860    -1.3820 c3         1 93A       0.229800
     14 O1           0.8410    -5.7760    -1.3050 os         1 93A      -0.362600
     15 C4           2.9010    -4.7850    -1.9280 c3         1 93A       0.069100
     16 O7           3.3230    -3.7550    -2.8240 oh         1 93A      -0.592800
     17 C3           2.7370    -6.1240    -2.6820 c3         1 93A       0.089100
     18 O6           3.0490    -5.9600    -4.0660 oh         1 93A      -0.582800
     19 C2           1.2440    -6.4790    -2.5020 c3         1 93A       0.125100
     20 C5'          1.0660    -7.9880    -2.3200 c3         1 93A       0.167400
     21 O5'         -0.3250    -8.2920    -2.2000 os         1 93A      -0.522200
     22 P           -0.4370    -9.8870    -2.0110 p5         1 93A       1.142900
     23 O1P          0.3950   -10.3080    -0.8610 o          1 93A      -0.901167
     24 O2P         -1.9720   -10.2880    -1.7380 o          1 93A      -0.901167
     25 O3P          0.0810   -10.6230    -3.3450 o          1 93A      -0.901167
     26 H17          2.0820     0.8670     2.0480 hn         1 93A       0.350500
     27 H11          1.3460    -5.5940     1.2680 h5         1 93A       0.115100
     28 H15          2.5010    -1.5140    -1.4100 hn         1 93A       0.470800
     29 H5           0.9500    -3.8400    -2.0660 h2         1 93A       0.093700
     30 H4           3.6030    -4.8960    -1.1110 h1         1 93A       0.044700
     31 HO7          4.2550    -3.6340    -2.7470 ho         1 93A       0.394000
     32 H3           3.3620    -6.8870    -2.2340 h1         1 93A       0.062700
     33 HO6          3.7890    -6.5020    -4.2880 ho         1 93A       0.396000
     34 H2           0.6720    -6.1270    -3.3520 h1         1 93A       0.077700
     35 H5'1         1.4770    -8.5060    -3.1780 h1         1 93A       0.055700
     36 H5'2         1.5840    -8.3070    -1.4230 h1         1 93A       0.055700
@<TRIPOS>BOND
     1     1     2 2
     2     2     3 2
     3     2     4 1
     4     2    10 1
     5     4     5 1
     6     4    26 1
     7     5     6 2
     8     5     7 1
     9     7     8 1
    10     7    11 2
    11     8     9 2
    12     9    12 1
    13     9    27 1
    14    10    11 1
    15    10    28 1
    16    11    12 1
    17    12    13 1
    18    13    14 1
    19    13    15 1
    20    13    29 1
    21    14    19 1
    22    15    16 1
    23    15    17 1
    24    15    30 1
    25    16    31 1
    26    17    18 1
    27    17    19 1
    28    17    32 1
    29    18    33 1
    30    19    20 1
    31    19    34 1
    32    20    21 1
    33    20    35 1
    34    20    36 1
    35    21    22 1
    36    22    23 1
    37    22    24 1
    38    22    25 1
@<TRIPOS>SUBSTRUCTURE
     1 93A         1 TEMP              0 ****  ****    0 ROOT
