@<TRIPOS>MOLECULE
93B
   15    15     1     0     0
SMALL
bcc


@<TRIPOS>ATOM
      1 C2           0.0000     0.0000     0.0000 c3         1 93B      -0.070400
      2 C3           1.5320     0.0000     0.0000 c3         1 93B      -0.002000
      3 N1           2.0130     0.0000     1.3830 ns         1 93B      -0.084400
      4 C            1.2960    -0.5580     2.3690 cs         1 93B       0.298400
      5 C1          -0.4870    -1.1980     0.8230 c3         1 93B      -0.002000
      6 N            0.1020    -1.1330     2.1610 ns         1 93B      -0.084400
      7 H1          -0.3020     0.8850     0.5460 hc         1 93B       0.046700
      8 H2          -0.3020    -0.1920    -1.0220 hc         1 93B       0.046700
      9 H3           1.8330    -0.9510    -0.4230 h1         1 93B       0.040200
     10 H4           1.8330     0.9510    -0.4220 h1         1 93B       0.040200
     11 H5           2.8940     0.4240     1.5960 hn         1 93B       0.213500
     12 H6          -0.0660    -2.0770     0.3510 h1         1 93B       0.040200
     13 H7          -1.5530    -1.0570     0.9560 h1         1 93B       0.040200
     14 H8          -0.3950    -1.5260     2.9350 hn         1 93B       0.213500
     15 S            1.9290    -0.5330     3.9600 s          1 93B      -0.736400
@<TRIPOS>BOND
     1     1     2 1   
     2     1     5 1   
     3     1     7 1   
     4     1     8 1   
     5     2     3 1   
     6     2     9 1   
     7     2    10 1   
     8     3     4 1   
     9     3    11 1   
    10     4     6 1   
    11     4    15 2   
    12     5     6 1   
    13     5    12 1   
    14     5    13 1   
    15     6    14 1   
@<TRIPOS>SUBSTRUCTURE
     1 93B         1 TEMP              0 ****  ****    0 ROOT
