@<TRIPOS>MOLECULE
molecule
   15    15     1     0     0
SMALL
bcc


@<TRIPOS>ATOM
      1 C2           0.0000     0.0000     0.0000 c3         1 93B      -0.137400
      2 C3           1.5320     0.0000     0.0000 c3         1 93B       0.071000
      3 N1           2.0130     0.0000     1.3830 ns         1 93B      -0.524900
      4 C            1.2960    -0.5580     2.3690 cs         1 93B       0.618400
      5 C1          -0.4870    -1.1980     0.8230 c3         1 93B       0.071000
      6 N            0.1020    -1.1330     2.1610 ns         1 93B      -0.524900
      7 H1          -0.3020     0.8850     0.5460 hc         1 93B       0.076700
      8 H2          -0.3020    -0.1920    -1.0220 hc         1 93B       0.076700
      9 H3           1.8330    -0.9510    -0.4230 h1         1 93B       0.066700
     10 H4           1.8330     0.9510    -0.4220 h1         1 93B       0.066700
     11 H5           2.8940     0.4240     1.5960 hn         1 93B       0.364500
     12 H6          -0.0660    -2.0770     0.3510 h1         1 93B       0.066700
     13 H7          -1.5530    -1.0570     0.9560 h1         1 93B       0.066700
     14 H8          -0.3950    -1.5260     2.9350 hn         1 93B       0.364500
     15 S            1.9290    -0.5330     3.9600 s          1 93B      -0.722400
@<TRIPOS>BOND
     1     3     2 1
     2     3     4 1
     3     2     1 1
     4    15     4 2
     5     4     6 1
     6     1     5 1
     7     6     5 1
     8     1     7 1
     9     1     8 1
    10     2     9 1
    11     2    10 1
    12     3    11 1
    13     5    12 1
    14     5    13 1
    15     6    14 1
@<TRIPOS>SUBSTRUCTURE
     1 93B         1 TEMP              0 ****  ****    0 ROOT
