@<TRIPOS>MOLECULE
molecule
   44    47     1     0     0
SMALL
bcc


@<TRIPOS>ATOM
      1 C5           0.0000     0.0000     0.0000 ca         1 93C      -0.107000
      2 C3           0.0860     0.0100     2.3920 cp         1 93C       0.366300
      3 C6           1.3870     0.0000     0.0000 ca         1 93C      -0.237300
      4 C1           2.0650     0.0000     1.2070 ca         1 93C       0.413200
      5 C17         -3.3760     0.8350    10.0030 ca         1 93C      -0.088000
      6 C9          -0.4610    -0.0070     6.0010 ca         1 93C       0.496200
      7 C4          -0.6610     0.0050     1.2170 ca         1 93C      -0.203300
      8 C13         -2.5490     0.0100     7.3810 c          1 93C       0.643700
      9 C7          -0.6070     0.0080     3.7040 cp         1 93C       0.659000
     10 C18         -3.9510     0.7870    11.2570 ca         1 93C      -0.169500
     11 C23         -5.9210     0.7770    13.6440 c          1 93C       0.695500
     12 C24         -7.0630     0.4650    14.5840 c3         1 93C      -0.170400
     13 C25         -8.1100    -0.2370    13.6900 c3         1 93C      -0.099400
     14 C26         -7.2260    -0.8080    12.5590 c3         1 93C       0.096000
     15 N22         -6.0430     0.0590    12.5140 n          1 93C      -0.379000
     16 C19         -5.1590     0.1280    11.4440 ca         1 93C       0.083600
     17 C20         -5.7900    -0.4820    10.3680 ca         1 93C      -0.169500
     18 C21         -5.2160    -0.4340     9.1140 ca         1 93C      -0.088000
     19 C16         -4.0080     0.2230     8.9270 ca         1 93C       0.051600
     20 N15         -3.8970     0.0260     7.4320 ns         1 93C      -0.505100
     21 O14         -1.9030    -0.0060     8.4110 o          1 93C      -0.592100
     22 C10         -1.8590     0.0100     6.0750 ca         1 93C      -0.418200
     23 N8           0.1180    -0.0050     4.8160 nb         1 93C      -0.717500
     24 C11         -2.5860     0.0290     4.8780 ca         1 93C       0.496200
     25 N12         -1.9330     0.0300     3.7320 nb         1 93C      -0.717500
     26 N2           1.4120    -0.0010     2.3490 nb         1 93C      -0.643000
     27 H1          -0.5540    -0.0020    -0.9310 ha         1 93C       0.142000
     28 H2           1.9340    -0.0010    -0.9350 ha         1 93C       0.140000
     29 H3           3.1490    -0.0050     1.2110 h4         1 93C       0.029100
     30 H4          -2.4340     1.3480     9.8580 ha         1 93C       0.147500
     31 H5           0.1370    -0.0170     6.9050 h4         1 93C       0.040600
     32 H6          -1.7440     0.0050     1.2540 ha         1 93C       0.161000
     33 H7          -3.4590     1.2630    12.0970 ha         1 93C       0.153500
     34 H8          -6.7330    -0.2000    15.3720 hc         1 93C       0.079700
     35 H9          -7.4730     1.3790    14.9970 hc         1 93C       0.079700
     36 H10         -8.6060    -1.0340    14.2300 hc         1 93C       0.061700
     37 H11         -8.8230     0.4780    13.2970 hc         1 93C       0.061700
     38 H12         -7.7560    -0.7680    11.6140 h1         1 93C       0.058200
     39 H13         -6.9350    -1.8260    12.7900 h1         1 93C       0.058200
     40 H14         -6.7330    -0.9960    10.5140 ha         1 93C       0.153500
     41 H15         -5.7080    -0.9110     8.2750 ha         1 93C       0.147500
     42 H16         -4.4270     0.1410     6.5910 hn         1 93C       0.360500
     43 H17         -3.6700     0.0450     4.8930 h4         1 93C       0.040600
     44 O27         -5.0270     1.5650    13.8730 o          1 93C      -0.613500
@<TRIPOS>BOND
     1    12    13 1
     2    12    11 1
     3    13    14 1
     4    44    11 2
     5    11    15 1
     6    14    15 1
     7    15    16 1
     8    10    16 ar
     9    10     5 ar
    10    16    17 ar
    11     5    19 ar
    12    17    18 ar
    13    19    18 ar
    14    19    20 1
    15    20     8 1
    16    24    25 ar
    17    24    22 ar
    18    25     9 ar
    19     8    22 1
    20     8    21 2
    21     7     1 ar
    22     7     2 ar
    23    22     6 ar
    24     1     3 ar
    25     9     2 1
    26     9    23 ar
    27     2    26 ar
    28     6    23 ar
    29     3     4 ar
    30    26     4 ar
    31     1    27 1
    32     3    28 1
    33     4    29 1
    34     5    30 1
    35     6    31 1
    36     7    32 1
    37    10    33 1
    38    12    34 1
    39    12    35 1
    40    13    36 1
    41    13    37 1
    42    14    38 1
    43    14    39 1
    44    17    40 1
    45    18    41 1
    46    20    42 1
    47    24    43 1
@<TRIPOS>SUBSTRUCTURE
     1 93C         1 TEMP              0 ****  ****    0 ROOT
