@<TRIPOS>MOLECULE
molecule
   13    13     1     0     0
SMALL
bcc


@<TRIPOS>ATOM
      1 C1           0.0000     0.0000     0.0000 ca         1 93E       0.429200
      2 C3           2.0610     0.0000     1.2120 ca         1 93E      -0.087000
      3 Cl           2.1210    -0.0010     3.9240 cl         1 93E      -0.094400
      4 C4           1.3240    -0.0010     2.3820 ca         1 93E      -0.102900
      5 C           -0.0670     0.0090     2.3070 ca         1 93E       0.687200
      6 N           -0.8200     0.0090     3.4760 nv         1 93E      -1.077500
      7 C2           1.3810     0.0000     0.0000 ca         1 93E      -0.256300
      8 N1          -0.6770     0.0050     1.1330 nb         1 93E      -0.699000
      9 H1          -0.5350    -0.0020    -0.9420 h4         1 93E       0.026100
     10 H2           3.1440    -0.0000     1.2390 ha         1 93E       0.150000
     11 H3          -1.1060    -0.8570     3.8870 hn         1 93E       0.440800
     12 H4          -1.1020     0.8760     3.8900 hn         1 93E       0.440800
     13 H5           1.9280    -0.0020    -0.9350 ha         1 93E       0.143000
@<TRIPOS>BOND
     1     6     5 1
     2     8     5 ar
     3     8     1 ar
     4     5     4 ar
     5     1     7 ar
     6     4     2 ar
     7     4     3 1
     8     7     2 ar
     9     1     9 1
    10     2    10 1
    11     6    11 1
    12     6    12 1
    13     7    13 1
@<TRIPOS>SUBSTRUCTURE
     1 93E         1 TEMP              0 ****  ****    0 ROOT
