@<TRIPOS>MOLECULE
molecule
   42    44     1     0     0
SMALL
bcc


@<TRIPOS>ATOM
      1 N1           0.0000     0.0000     0.0000 ns         1 93G      -0.444400
      2 C2           1.3630     0.0000     0.0000 cc         1 93G       0.571800
      3 N2           2.0300     0.0010    -1.2000 nz         1 93G      -0.747600
      4 N3           2.0590     0.0000     1.1130 nd         1 93G      -0.595100
      5 C4           1.4470    -0.0010     2.3130 cd         1 93G       0.183100
      6 C5           0.0500     0.0000     2.3680 cc         1 93G      -0.161900
      7 C6          -0.6810     0.0000     1.1670 c          1 93G       0.728100
      8 O6          -1.9000     0.0010     1.1790 o          1 93G      -0.475500
      9 N7          -0.2830    -0.0000     3.7090 na         1 93G       0.053900
     10 C8           0.8730    -0.0010     4.4040 cc         1 93G       0.038400
     11 N9           1.8880    -0.0010     3.5830 na         1 93G       0.037900
     12 CG           5.2110     1.6780     4.3770 ca         1 93G      -0.225600
     13 NN           6.7250     5.6430     4.4360 nz         1 93G      -0.679400
     14 ON           8.6890     4.8280     5.0800 o          1 93G      -0.348100
     15 CZ           7.8570     2.1620     5.0880 ca         1 93G       0.282100
     16 C1'          3.2970    -0.0020     3.9850 c3         1 93G      -0.074700
     17 C2'          3.8160     1.4130     4.0030 c          1 93G       0.573700
     18 O2'          3.0810     2.3310     3.7100 o          1 93G      -0.513100
     19 CD1          6.0610     0.6160     4.7170 ca         1 93G      -0.011000
     20 CD2          5.6930     2.9890     4.3900 ca         1 93G      -0.012000
     21 CE1          7.3680     0.8600     5.0670 ca         1 93G      -0.188000
     22 CE2          7.0170     3.2330     4.7440 ca         1 93G      -0.244600
     23 CM7         -1.6370     0.0010     4.2700 c3         1 93G       0.008600
     24 HN1         -0.4980    -0.0010    -0.8680 hn         1 93G       0.390500
     25 HN2          1.8690    -0.8670    -1.6720 hn         1 93G       0.502133
     26 HN2A         1.6960     0.7550    -1.7670 hn         1 93G       0.502133
     27 H8           0.9480    -0.0030     5.4850 h5         1 93G       0.276000
     28 HOH          9.3740     1.8590     6.1750 ho         1 93G       0.475000
     29 HNN          6.3610     5.4990     3.5150 hn         1 93G       0.482800
     30 HNNA         7.2510     6.4940     4.4570 hn         1 93G       0.482800
     31 H1'          3.3890    -0.4340     4.9740 h1         1 93G       0.130700
     32 H1'A         3.8730    -0.5890     3.2790 h1         1 93G       0.130700
     33 HD1          5.6870    -0.4010     4.7020 ha         1 93G       0.152000
     34 HD2          5.0150     3.8170     4.2230 ha         1 93G       0.141000
     35 HE1          8.0200     0.0350     5.3280 ha         1 93G       0.194000
     36 HM7         -1.5800     0.0510     5.3510 h1         1 93G       0.116700
     37 HM7A        -2.1820     0.8590     3.8970 h1         1 93G       0.116700
     38 HM7B        -2.1490    -0.9080     3.9780 h1         1 93G       0.116700
     39 OH           9.1450     2.3950     5.4340 oh         1 93G      -0.447100
     40 CN           7.5340     4.6160     4.7660 c          1 93G       0.496700
     41 H23          3.0080     0.1380    -1.0390 hn         1 93G       0.502133
     42 HN3          5.9700     5.6770     5.0920 hn         1 93G       0.482800
@<TRIPOS>BOND
     1     1     2 1
     2     1     7 1
     3     2     3 1
     4     2     4 2
     5     4     5 1
     6     5     6 2
     7     5    11 1
     8     6     7 1
     9     6     9 1
    10     7     8 2
    11     9    10 2
    12     9    23 1
    13    10    11 1
    14    11    16 1
    15    12    17 1
    16    12    19 ar
    17    12    20 ar
    18    39    15 1
    19    40    13 1
    20    40    14 2
    21    40    22 1
    22    15    21 ar
    23    15    22 ar
    24    16    17 1
    25    17    18 2
    26    19    21 ar
    27    20    22 ar
    28     1    24 1
    29     3    25 1
    30     3    26 1
    31    10    27 1
    32    39    28 1
    33    13    29 1
    34    13    30 1
    35    16    31 1
    36    16    32 1
    37    19    33 1
    38    20    34 1
    39    21    35 1
    40    23    36 1
    41    23    37 1
    42    23    38 1
    43    41     3 1
    44    42    13 1
@<TRIPOS>SUBSTRUCTURE
     1 93G         1 TEMP              0 ****  ****    0 ROOT
