@<TRIPOS>MOLECULE
93G
   42    44     1     0     0
SMALL
bcc


@<TRIPOS>ATOM
      1 N1           0.0000     0.0000     0.0000 ns         1 93G       0.050600
      2 C2           1.3630     0.0000     0.0000 cc         1 93G       0.115800
      3 N2           2.0300     0.0010    -1.2000 nz         1 93G       0.188400
      4 N3           2.0590     0.0000     1.1130 nd         1 93G      -0.416100
      5 C4           1.4470    -0.0010     2.3130 cd         1 93G      -0.073900
      6 C5           0.0500     0.0000     2.3680 cc         1 93G      -0.343900
      7 C6          -0.6810     0.0000     1.1670 c          1 93G       0.631100
      8 O6          -1.9000     0.0010     1.1790 o          1 93G      -0.515500
      9 N7          -0.2830    -0.0000     3.7090 na         1 93G       0.633900
     10 C8           0.8730    -0.0010     4.4040 cc         1 93G      -0.372600
     11 N9           1.8880    -0.0010     3.5830 na         1 93G       0.628900
     12 CG           5.2110     1.6780     4.3770 ca         1 93G      -0.246600
     13 NN           6.7250     5.6430     4.4360 nz         1 93G       0.204600
     14 ON           8.6890     4.8280     5.0800 o          1 93G      -0.360100
     15 CZ           7.8570     2.1620     5.0880 ca         1 93G       0.318100
     16 C1'          3.2970    -0.0020     3.9850 c3         1 93G      -0.187700
     17 C2'          3.8160     1.4130     4.0030 c          1 93G       0.641700
     18 O2'          3.0810     2.3310     3.7100 o          1 93G      -0.562100
     19 CD1          6.0610     0.6160     4.7170 ca         1 93G       0.036000
     20 CD2          5.6930     2.9890     4.3900 ca         1 93G       0.031000
     21 CE1          7.3680     0.8600     5.0670 ca         1 93G      -0.168000
     22 CE2          7.0170     3.2330     4.7440 ca         1 93G      -0.280600
     23 CM7         -1.6370     0.0010     4.2700 c3         1 93G      -0.052400
     24 HN1         -0.4980    -0.0010    -0.8680 hn         1 93G       0.222500
     25 HN2          1.8690    -0.8670    -1.6720 hn         1 93G       0.242800
     26 HN2A         1.6960     0.7550    -1.7670 hn         1 93G       0.242800
     27 H8           0.9480    -0.0030     5.4850 h5         1 93G       0.228000
     28 HOH          9.3740     1.8590     6.1750 ho         1 93G       0.451000
     29 HNN          6.3610     5.4990     3.5150 hn         1 93G       0.250133
     30 HNNA         7.2510     6.4940     4.4570 hn         1 93G       0.250133
     31 H1'          3.3890    -0.4340     4.9740 h1         1 93G       0.096200
     32 H1'A         3.8730    -0.5890     3.2790 h1         1 93G       0.096200
     33 HD1          5.6870    -0.4010     4.7020 ha         1 93G       0.114000
     34 HD2          5.0150     3.8170     4.2230 ha         1 93G       0.104000
     35 HE1          8.0200     0.0350     5.3280 ha         1 93G       0.158000
     36 HM7         -1.5800     0.0510     5.3510 h1         1 93G       0.079700
     37 HM7A        -2.1820     0.8590     3.8970 h1         1 93G       0.079700
     38 HM7B        -2.1490    -0.9080     3.9780 h1         1 93G       0.079700
     39 OH           9.1450     2.3950     5.4340 oh         1 93G      -0.430100
     40 CN           7.5340     4.6160     4.7660 c          1 93G       0.341700
     41 H23          3.0080     0.1380    -1.0390 hn         1 93G       0.242800
     42 HN3          5.9700     5.6770     5.0920 hn         1 93G       0.250133
@<TRIPOS>BOND
     1     1     2 1   
     2     1     7 1   
     3     1    24 1   
     4     2     3 1   
     5     2     4 2   
     6     3    25 1   
     7     3    26 1   
     8     3    41 1   
     9     4     5 1   
    10     5     6 2   
    11     5    11 1   
    12     6     7 1   
    13     6     9 1   
    14     7     8 2   
    15     9    10 2   
    16     9    23 1   
    17    10    11 1   
    18    10    27 1   
    19    11    16 1   
    20    12    17 1   
    21    12    19 ar  
    22    12    20 ar  
    23    13    29 1   
    24    13    30 1   
    25    13    40 1   
    26    13    42 1   
    27    14    40 2   
    28    15    21 ar  
    29    15    22 ar  
    30    15    39 1   
    31    16    17 1   
    32    16    31 1   
    33    16    32 1   
    34    17    18 2   
    35    19    21 ar  
    36    19    33 1   
    37    20    22 ar  
    38    20    34 1   
    39    21    35 1   
    40    22    40 1   
    41    23    36 1   
    42    23    37 1   
    43    23    38 1   
    44    28    39 1   
@<TRIPOS>SUBSTRUCTURE
     1 93G         1 TEMP              0 ****  ****    0 ROOT
