@<TRIPOS>MOLECULE
93H
   42    43     1     0     0
SMALL
bcc


@<TRIPOS>ATOM
      1 C10          0.0000     0.0000     0.0000 c3         1 93H       0.145800
      2 C13          2.2610    -1.1990     2.0720 ca         1 93H      -0.121000
      3 C15          2.9580     0.0060     4.0310 ca         1 93H       0.097100
      4 C17          2.7220     1.2030     3.3750 ca         1 93H      -0.143000
      5 C20         -4.6250     1.2000    -2.9400 ca         1 93H      -0.054500
      6 C21         -6.0050     1.2030    -2.9830 ca         1 93H      -0.175000
      7 C01         -8.7080    -1.2700    -3.0690 c3         1 93H       0.244700
      8 C03         -6.7010     0.0030    -3.0060 ca         1 93H       0.149100
      9 C04         -6.0070    -1.1990    -2.9870 ca         1 93H      -0.175000
     10 C05         -4.6260    -1.1960    -2.9440 ca         1 93H      -0.054500
     11 C06         -3.9360     0.0020    -2.9210 ca         1 93H      -0.135300
     12 C07         -2.4290    -0.0000    -2.8800 c3         1 93H       0.036900
     13 C11          1.5300     0.0000     0.0000 c3         1 93H       0.030900
     14 C12          2.0320     0.0000     1.4210 ca         1 93H      -0.091300
     15 C14          2.7220    -1.2000     3.3780 ca         1 93H       0.099100
     16 C18          2.2610     1.1970     2.0710 ca         1 93H      -0.087000
     17 N09         -0.4900     0.0000    -1.3860 n7         1 93H      -0.589200
     18 O19          2.9430    -2.3780     4.0210 oh         1 93H      -0.483100
     19 H1          -0.3610     0.8840     0.5110 h1         1 93H       0.008200
     20 H2          -0.3610    -0.8850     0.5100 h1         1 93H       0.008200
     21 H3           2.0760    -2.1360     1.5620 ha         1 93H       0.116000
     22 H4           2.9030     2.1430     3.8820 ha         1 93H       0.113000
     23 H5          -4.0820     2.1370    -2.9220 ha         1 93H       0.105000
     24 H6          -6.5450     2.1420    -2.9970 ha         1 93H       0.118000
     25 H7          -9.7810    -1.1280    -3.1040 h1         1 93H      -0.002967
     26 H8          -8.4460    -1.8250    -2.1760 h1         1 93H      -0.002967
     27 H9          -8.3890    -1.8230    -3.9450 h1         1 93H      -0.002967
     28 H10         -6.5470    -2.1370    -3.0060 ha         1 93H       0.118000
     29 H11         -4.0830    -2.1340    -2.9290 ha         1 93H       0.105000
     30 H12         -2.0550    -0.8860    -3.3800 hc         1 93H       0.021200
     31 H13         -2.0530     0.8830    -3.3820 hc         1 93H       0.021200
     32 H14         -2.3320     0.8860    -0.9250 h1         1 93H       0.009200
     33 H15         -2.3330    -0.8830    -0.9230 h1         1 93H       0.009200
     34 H16          1.8910     0.8840    -0.5110 hc         1 93H       0.024700
     35 H17          1.8910    -0.8850    -0.5110 hc         1 93H       0.024700
     36 H18          2.0790     2.1340     1.5580 ha         1 93H       0.110000
     37 H19         -0.1440    -0.8090    -1.8620 hn         1 93H       0.251800
     38 H21          2.7700     0.4170     5.8710 ho         1 93H       0.396000
     39 H22          2.1310    -2.6990     4.3770 ho         1 93H       0.396000
     40 O16          3.4110     0.0100     5.3130 oh         1 93H      -0.479100
     41 C08         -1.9580     0.0010    -1.4250 c3         1 93H       0.144800
     42 O02         -8.0590     0.0030    -3.0470 os         1 93H      -0.307900
@<TRIPOS>BOND
     1     1    13 1   
     2     1    17 1   
     3     1    19 1   
     4     1    20 1   
     5     2    14 ar  
     6     2    15 ar  
     7     2    21 1   
     8     3     4 ar  
     9     3    15 ar  
    10     3    40 1   
    11     4    16 ar  
    12     4    22 1   
    13     5     6 ar  
    14     5    11 ar  
    15     5    23 1   
    16     6     8 ar  
    17     6    24 1   
    18     7    25 1   
    19     7    26 1   
    20     7    27 1   
    21     7    42 1   
    22     8     9 ar  
    23     8    42 1   
    24     9    10 ar  
    25     9    28 1   
    26    10    11 ar  
    27    10    29 1   
    28    11    12 1   
    29    12    30 1   
    30    12    31 1   
    31    12    41 1   
    32    13    14 1   
    33    13    34 1   
    34    13    35 1   
    35    14    16 ar  
    36    15    18 1   
    37    16    36 1   
    38    17    37 1   
    39    17    41 1   
    40    18    39 1   
    41    32    41 1   
    42    33    41 1   
    43    38    40 1   
@<TRIPOS>SUBSTRUCTURE
     1 93H         1 TEMP              0 ****  ****    0 ROOT
