@<TRIPOS>MOLECULE
molecule
   42    43     1     0     0
SMALL
bcc


@<TRIPOS>ATOM
      1 C10          0.0000     0.0000     0.0000 c3         1 93H       0.160800
      2 C13          2.2610    -1.1990     2.0720 ca         1 93H      -0.139000
      3 C15          2.9580     0.0060     4.0310 ca         1 93H       0.090100
      4 C17          2.7220     1.2030     3.3750 ca         1 93H      -0.164000
      5 C20         -4.6250     1.2000    -2.9400 ca         1 93H      -0.087000
      6 C21         -6.0050     1.2030    -2.9830 ca         1 93H      -0.188000
      7 C01         -8.7080    -1.2700    -3.0690 c3         1 93H       0.129700
      8 C03         -6.7010     0.0030    -3.0060 ca         1 93H       0.139100
      9 C04         -6.0070    -1.1990    -2.9870 ca         1 93H      -0.188000
     10 C05         -4.6260    -1.1960    -2.9440 ca         1 93H      -0.087000
     11 C06         -3.9360     0.0020    -2.9210 ca         1 93H      -0.125300
     12 C07         -2.4290    -0.0000    -2.8800 c3         1 93H      -0.031100
     13 C11          1.5300     0.0000     0.0000 c3         1 93H      -0.036100
     14 C12          2.0320     0.0000     1.4210 ca         1 93H      -0.085300
     15 C14          2.7220    -1.2000     3.3780 ca         1 93H       0.091100
     16 C18          2.2610     1.1970     2.0710 ca         1 93H      -0.113000
     17 N09         -0.4900     0.0000    -1.3860 n7         1 93H      -0.823200
     18 O19          2.9430    -2.3780     4.0210 oh         1 93H      -0.506100
     19 H1          -0.3610     0.8840     0.5110 h1         1 93H       0.034700
     20 H2          -0.3610    -0.8850     0.5100 h1         1 93H       0.034700
     21 H3           2.0760    -2.1360     1.5620 ha         1 93H       0.143000
     22 H4           2.9030     2.1430     3.8820 ha         1 93H       0.141000
     23 H5          -4.0820     2.1370    -2.9220 ha         1 93H       0.133000
     24 H6          -6.5450     2.1420    -2.9970 ha         1 93H       0.139500
     25 H7          -9.7810    -1.1280    -3.1040 h1         1 93H       0.041367
     26 H8          -8.4460    -1.8250    -2.1760 h1         1 93H       0.041367
     27 H9          -8.3890    -1.8230    -3.9450 h1         1 93H       0.041367
     28 H10         -6.5470    -2.1370    -3.0060 ha         1 93H       0.139500
     29 H11         -4.0830    -2.1340    -2.9290 ha         1 93H       0.133000
     30 H12         -2.0550    -0.8860    -3.3800 hc         1 93H       0.053700
     31 H13         -2.0530     0.8830    -3.3820 hc         1 93H       0.053700
     32 H14         -2.3320     0.8860    -0.9250 h1         1 93H       0.035700
     33 H15         -2.3330    -0.8830    -0.9230 h1         1 93H       0.035700
     34 H16          1.8910     0.8840    -0.5110 hc         1 93H       0.057200
     35 H17          1.8910    -0.8850    -0.5110 hc         1 93H       0.057200
     36 H18          2.0790     2.1340     1.5580 ha         1 93H       0.138000
     37 H19         -0.1440    -0.8090    -1.8620 hn         1 93H       0.350800
     38 H21          2.7700     0.4170     5.8710 ho         1 93H       0.415000
     39 H22          2.1310    -2.6990     4.3770 ho         1 93H       0.415000
     40 O16          3.4110     0.0100     5.3130 oh         1 93H      -0.502100
     41 C08         -1.9580     0.0010    -1.4250 c3         1 93H       0.160800
     42 O02         -8.0590     0.0030    -3.0470 os         1 93H      -0.329900
@<TRIPOS>BOND
     1     6     5 ar
     2     6     8 ar
     3     5    11 ar
     4    42     8 1
     5    42     7 1
     6    12    11 1
     7    12    41 1
     8     8     9 ar
     9    11    10 ar
    10    41    17 1
    11     9    10 ar
    12    17     1 1
    13     1    13 1
    14    13    14 1
    15    16    14 ar
    16    16     4 ar
    17    14     2 ar
    18     4     3 ar
    19     2    15 ar
    20     3    15 ar
    21     3    40 1
    22    15    18 1
    23     1    19 1
    24     1    20 1
    25     2    21 1
    26     4    22 1
    27     5    23 1
    28     6    24 1
    29     7    25 1
    30     7    26 1
    31     7    27 1
    32     9    28 1
    33    10    29 1
    34    12    30 1
    35    12    31 1
    36    41    32 1
    37    41    33 1
    38    13    34 1
    39    13    35 1
    40    16    36 1
    41    17    37 1
    42    40    38 1
    43    18    39 1
@<TRIPOS>SUBSTRUCTURE
     1 93H         1 TEMP              0 ****  ****    0 ROOT
