@<TRIPOS>MOLECULE
93J
   56    59     1     0     0
SMALL
bcc


@<TRIPOS>ATOM
      1 C10          0.0000     0.0000     0.0000 ca         1 93J      -0.101000
      2 C13          1.3980    -0.0130    -2.4050 ca         1 93J       0.105000
      3 C15          1.4160     0.0000     0.0000 ca         1 93J       0.015000
      4 C20         -4.1380    -1.2210     1.4860 ca         1 93J      -0.128000
      5 C21         -4.8290    -2.4180     1.4640 ca         1 93J      -0.108000
      6 C22         -4.1550    -3.6040     1.2240 ca         1 93J       0.052000
      7 C24         -2.0920    -2.4010     1.0350 ca         1 93J      -0.208000
      8 C01         -1.9570    -0.5100    -3.6710 c2         1 93J       0.301000
      9 C02         -2.7110    -0.4640    -4.9320 c2         1 93J      -0.459000
     10 C03         -3.9490    -0.9490    -4.9860 c2         1 93J       0.006000
     11 C04         -4.7200    -0.9030    -6.2790 c3         1 93J      -0.072000
     12 O01         -2.4660    -0.9900    -2.6750 o          1 93J      -0.396000
     13 N02         -5.1790    -2.2550    -6.6240 nx         1 93J       0.104000
     14 C05         -6.1300    -2.2200    -7.7430 c3         1 93J      -0.137500
     15 C06         -4.0420    -3.1350    -6.9280 c3         1 93J      -0.137500
     16 N03          2.0910     0.0000     1.1590 n2         1 93J      -0.047000
     17 C07          1.4820     0.0000     2.3170 c2         1 93J      -0.030000
     18 C08          0.0810    -0.0000     2.4110 c2         1 93J      -0.045000
     19 C09         -0.6860     0.0010     1.2370 c2         1 93J       0.082000
     20 C11         -0.7010    -0.0060    -1.2150 ca         1 93J      -0.078000
     21 C12         -0.0050    -0.0120    -2.4030 ca         1 93J      -0.097000
     22 C14          2.1030     0.0000    -1.2240 ca         1 93J      -0.202000
     23 O02          2.0680    -0.0130    -3.5870 os         1 93J      -0.194000
     24 C16          3.4960    -0.0010    -3.5240 c3         1 93J       0.005000
     25 C18         -0.5580    -0.0010     3.6930 c1         1 93J      -0.086000
     26 N04         -1.0650    -0.0210     4.7090 n1         1 93J      -0.054000
     27 N05         -2.0660     0.0010     1.2850 nu         1 93J      -0.372000
     28 C19         -2.7660    -1.2090     1.2690 ca         1 93J       0.148000
     29 C23         -2.7870    -3.5930     1.0070 ca         1 93J      -0.056000
     30 Cl1         -6.5440    -2.4350     1.7350 cl         1 93J       0.105000
     31 H1           5.1510    -0.0130    -4.8950 hc         1 93J       0.047333
     32 H2           3.7220    -0.8830    -5.4710 hc         1 93J       0.047333
     33 H3           3.7390     0.8860    -5.4660 hc         1 93J       0.047333
     34 H4          -4.6670    -0.2940     1.6740 ha         1 93J       0.150000
     35 H5          -1.0220    -2.3930     0.8650 ha         1 93J       0.139000
     36 H6          -2.8000     0.4680    -5.4770 ha         1 93J       0.114000
     37 H7          -4.5040    -0.9150    -5.9160 ha         1 93J      -0.079000
     38 H8          -4.3060    -1.6250    -6.9730 DU         1 93J       0.155000
     39 H9          -4.6500     0.0900    -6.7070 hx         1 93J       0.116000
     40 H10         -0.2520     0.2940    -4.4540 hn         1 93J       0.091000
     41 H12         -6.3740    -3.2320    -8.0420 hx         1 93J       0.061000
     42 H13         -5.6840    -1.6940    -8.5790 hx         1 93J       0.061000
     43 H14         -7.0330    -1.7070    -7.4340 hx         1 93J       0.061000
     44 H15         -3.3520    -3.1350    -6.0920 hx         1 93J       0.061000
     45 H16         -3.5340    -2.7760    -7.8150 hx         1 93J       0.061000
     46 H17         -4.4000    -4.1430    -7.1000 hx         1 93J       0.061000
     47 H18          2.0610     0.0000     3.2330 h4         1 93J       0.123000
     48 H19         -1.7840    -0.0060    -1.2150 ha         1 93J       0.183000
     49 H20          3.1860    -0.0000    -1.2400 ha         1 93J       0.141000
     50 H21          3.8130     0.5090    -2.6220 h1         1 93J       0.061000
     51 H22          3.8660    -1.0190    -3.5130 h1         1 93J       0.061000
     52 H23         -2.5650    -0.8630     1.3660 hn         1 93J       0.246000
     53 H24         -2.2610    -4.5210     0.8200 ha         1 93J       0.125000
     54 N01         -0.7030    -0.0180    -3.6170 ns         1 93J       0.129000
     55 F01         -4.8320    -4.7730     1.2030 f          1 93J      -0.083000
     56 C17          4.0690    -0.0030    -4.9420 c3         1 93J      -0.095000
@<TRIPOS>BOND
     1     1     3 1   
     2     1    19 1   
     3     1    20 1   
     4     2    21 1   
     5     2    22 1   
     6     2    23 1   
     7     3    16 1   
     8     3    22 1   
     9     4     5 1   
    10     4    28 1   
    11     4    34 1   
    12     5     6 1   
    13     5    30 1   
    14     6    29 1   
    15     6    55 1   
    16     7    28 1   
    17     7    29 1   
    18     7    35 1   
    19     8     9 1   
    20     8    12 1   
    21     8    54 1   
    22     9    10 1   
    23     9    36 1   
    24    10    11 1   
    25    10    37 1   
    26    11    13 1   
    27    11    38 1   
    28    11    39 1   
    29    13    14 1   
    30    13    15 1   
    31    13    38 1   
    32    14    41 1   
    33    14    42 1   
    34    14    43 1   
    35    15    44 1   
    36    15    45 1   
    37    15    46 1   
    38    16    17 1   
    39    17    18 1   
    40    17    47 1   
    41    18    19 1   
    42    18    25 1   
    43    19    27 1   
    44    20    21 1   
    45    20    48 1   
    46    21    54 1   
    47    22    49 1   
    48    23    24 1   
    49    24    50 1   
    50    24    51 1   
    51    24    56 1   
    52    25    26 1   
    53    27    28 1   
    54    27    52 1   
    55    29    53 1   
    56    31    56 1   
    57    32    56 1   
    58    33    56 1   
    59    40    54 1   
@<TRIPOS>SUBSTRUCTURE
     1 93J         1 TEMP              0 ****  ****    0 ROOT
