@<TRIPOS>MOLECULE
molecule
   56    58     1     0     0
SMALL
bcc


@<TRIPOS>ATOM
      1 C10          0.0000     0.0000     0.0000 ca         1 93J      -0.170300
      2 C13          1.3980    -0.0130    -2.4050 ca         1 93J       0.138100
      3 C15          1.4160     0.0000     0.0000 ca         1 93J       0.445600
      4 C20         -4.1380    -1.2210     1.4860 ca         1 93J      -0.130000
      5 C21         -4.8290    -2.4180     1.4640 ca         1 93J       0.020400
      6 C22         -4.1550    -3.6040     1.2240 ca         1 93J       0.122900
      7 C24         -2.0920    -2.4010     1.0350 ca         1 93J      -0.206000
      8 C01         -1.9570    -0.5100    -3.6710 c          1 93J       0.668300
      9 C02         -2.7110    -0.4640    -4.9320 ce         1 93J      -0.270200
     10 C03         -3.9490    -0.9490    -4.9860 c2         1 93J      -0.060200
     11 C04         -4.7200    -0.9030    -6.2790 c3         1 93J       0.180000
     12 O01         -2.4660    -0.9900    -2.6750 o          1 93J      -0.608100
     13 N02         -5.1790    -2.2550    -6.6240 n3         1 93J      -0.725600
     14 C05         -6.1300    -2.2200    -7.7430 c3         1 93J       0.149100
     15 C06         -4.0420    -3.1350    -6.9280 c3         1 93J       0.149100
     16 N03          2.0910     0.0000     1.1590 nb         1 93J      -0.681000
     17 C07          1.4820     0.0000     2.3170 ca         1 93J       0.461200
     18 C08          0.0810    -0.0000     2.4110 ca         1 93J      -0.153300
     19 C09         -0.6860     0.0010     1.2370 ca         1 93J       0.166600
     20 C11         -0.7010    -0.0060    -1.2150 ca         1 93J      -0.089000
     21 C12         -0.0050    -0.0120    -2.4030 ca         1 93J       0.041600
     22 C14          2.1030     0.0000    -1.2240 ca         1 93J      -0.267300
     23 O02          2.0680    -0.0130    -3.5870 os         1 93J      -0.340900
     24 C16          3.4960    -0.0010    -3.5240 c3         1 93J       0.134400
     25 C18         -0.5580    -0.0010     3.6930 cg         1 93J       0.244800
     26 N04         -1.0820    -0.0000     4.7010 n1         1 93J      -0.355800
     27 N05         -2.0660     0.0010     1.2850 nu         1 93J      -0.756000
     28 C19         -2.7660    -1.2090     1.2690 ca         1 93J       0.112600
     29 C23         -2.7870    -3.5930     1.0070 ca         1 93J      -0.110000
     30 Cl1         -6.5440    -2.4350     1.7350 cl         1 93J      -0.064400
     31 H1           3.7490     0.8930    -5.4620 hc         1 93J       0.049367
     32 H2           5.1510    -0.0260    -4.8950 hc         1 93J       0.049367
     33 H3           3.7110    -0.8760    -5.4750 hc         1 93J       0.049367
     34 H4          -4.6670    -0.2940     1.6740 ha         1 93J       0.183000
     35 H5          -1.0220    -2.3930     0.8650 ha         1 93J       0.165000
     36 H6          -2.1840    -0.3780    -5.8750 ha         1 93J       0.129000
     37 H7          -4.4020    -1.3770    -4.1000 ha         1 93J       0.164000
     38 H8          -4.0910    -0.4950    -7.0610 h1         1 93J       0.046700
     39 H9          -5.5950    -0.2760    -6.1560 h1         1 93J       0.046700
     40 H10         -0.2270     0.2280    -4.4630 hn         1 93J       0.338500
     41 H12         -6.5120    -3.2170    -7.9240 h1         1 93J       0.035033
     42 H13         -5.6280    -1.8580    -8.6330 h1         1 93J       0.035033
     43 H14         -6.9510    -1.5570    -7.4980 h1         1 93J       0.035033
     44 H15         -3.4940    -2.7380    -7.7740 h1         1 93J       0.035033
     45 H16         -3.3870    -3.1880    -6.0660 h1         1 93J       0.035033
     46 H17         -4.4060    -4.1270    -7.1660 h1         1 93J       0.035033
     47 H18          2.0600     0.0000     3.2330 h4         1 93J       0.034100
     48 H19         -1.7840    -0.0060    -1.2150 ha         1 93J       0.202000
     49 H20          3.1860    -0.0000    -1.2400 ha         1 93J       0.160000
     50 H21          3.8300     0.9380    -3.0990 h1         1 93J       0.042700
     51 H22          3.8370    -0.8200    -2.9030 h1         1 93J       0.042700
     52 H23         -2.5600    -0.8590     1.4170 hn         1 93J       0.548800
     53 H24         -2.2610    -4.5210     0.8200 ha         1 93J       0.160000
     54 N01         -0.7030    -0.0180    -3.6170 ns         1 93J      -0.455100
     55 F01         -4.8320    -4.7730     1.2030 f          1 93J      -0.121900
     56 C17          4.0690    -0.0030    -4.9420 c3         1 93J      -0.093100
@<TRIPOS>BOND
     1    14    13 1
     2    30     5 1
     3    55     6 1
     4     6     5 ar
     5     6    29 ar
     6     5     4 ar
     7    13    15 1
     8    13    11 1
     9    29     7 ar
    10     4    28 ar
    11     7    28 ar
    12    28    27 1
    13    10    11 1
    14    10     9 2
    15    12     8 2
    16     8     9 1
    17     8    54 1
    18    27    19 1
    19    54    21 1
    20    20    21 ar
    21    20     1 ar
    22    21     2 ar
    23    19     1 ar
    24    19    18 ar
    25     1     3 ar
    26    26    25 3
    27    25    18 1
    28    18    17 ar
    29     2    23 1
    30     2    22 ar
    31    23    24 1
    32     3    22 ar
    33     3    16 ar
    34    17    16 ar
    35    24    56 1
    36    56    31 1
    37    56    32 1
    38    56    33 1
    39     4    34 1
    40     7    35 1
    41     9    36 1
    42    10    37 1
    43    11    38 1
    44    11    39 1
    45    54    40 1
    46    14    41 1
    47    14    42 1
    48    14    43 1
    49    15    44 1
    50    15    45 1
    51    15    46 1
    52    17    47 1
    53    20    48 1
    54    22    49 1
    55    24    50 1
    56    24    51 1
    57    27    52 1
    58    29    53 1
@<TRIPOS>SUBSTRUCTURE
     1 93J         1 TEMP              0 ****  ****    0 ROOT
