@<TRIPOS>MOLECULE
93K
   21    21     1     0     0
SMALL
bcc


@<TRIPOS>ATOM
      1 C1           0.0000     0.0000     0.0000 ca         1 93K      -0.247600
      2 C2           1.3970     0.0000     0.0000 ca         1 93K      -0.079000
      3 C3           2.0870     0.0000     1.1930 ca         1 93K      -0.099000
      4 C4           1.3970     0.0000     2.3980 ca         1 93K       0.119600
      5 C5          -0.0010    -0.0010     2.4060 ca         1 93K       0.025600
      6 C6          -0.6970     0.0060     1.2130 ca         1 93K       0.005000
      7 O           -1.9550    -0.0010    -1.2750 o          1 93K      -0.436100
      8 C           -0.7390    -0.0010    -1.2770 c          1 93K       0.356700
      9 N           -0.0670    -0.0010    -2.4440 nz         1 93K       0.200600
     10 N2          -0.6950    -0.0020     3.6220 nv         1 93K      -0.547200
     11 N1           2.0990    -0.0010     3.6030 nv         1 93K      -0.560200
     12 H1           1.9380    -0.0020    -0.9380 ha         1 93K       0.078000
     13 H2           3.1700     0.0000     1.1900 ha         1 93K       0.132000
     14 H3          -1.7800     0.0060     1.2160 ha         1 93K       0.137000
     15 H4           0.5090    -0.8180    -2.4980 hn         1 93K       0.245800
     16 H5           0.5090     0.8160    -2.4980 hn         1 93K       0.245800
     17 H6          -0.9580     0.8640     4.0480 hn         1 93K       0.291800
     18 H7          -0.9590    -0.8690     4.0460 hn         1 93K       0.291800
     19 H8           2.3670    -0.8680     4.0250 hn         1 93K       0.296800
     20 H9           2.3670     0.8650     4.0260 hn         1 93K       0.296800
     21 HN3         -0.7180    -0.0200    -3.2040 hn         1 93K       0.245800
@<TRIPOS>BOND
     1     1     2 ar  
     2     1     6 ar  
     3     1     8 1   
     4     2     3 ar  
     5     2    12 1   
     6     3     4 ar  
     7     3    13 1   
     8     4     5 ar  
     9     4    11 1   
    10     5     6 ar  
    11     5    10 1   
    12     6    14 1   
    13     7     8 2   
    14     8     9 1   
    15     9    15 1   
    16     9    16 1   
    17     9    21 1   
    18    10    17 1   
    19    10    18 1   
    20    11    19 1   
    21    11    20 1   
@<TRIPOS>SUBSTRUCTURE
     1 93K         1 TEMP              0 ****  ****    0 ROOT
