@<TRIPOS>MOLECULE
molecule
   52    54     1     0     0
SMALL
bcc


@<TRIPOS>ATOM
      1 N1           0.0000     0.0000     0.0000 nb         1 93N      -0.667000
      2 C2           1.3240     0.0000     0.0000 cp         1 93N       0.497800
      3 C3           2.0370     0.0000     1.2010 ca         1 93N      -0.232300
      4 C4           1.3450     0.0020     2.3990 ca         1 93N      -0.089000
      5 C5          -0.0410     0.0020     2.3650 ca         1 93N      -0.218300
      6 C6          -0.6930     0.0020     1.1320 ca         1 93N       0.520300
      7 C7           2.0570    -0.0010    -1.2890 cp         1 93N      -0.201500
      8 C8           1.3530    -0.0020    -2.4930 ca         1 93N      -0.004000
      9 C9           2.0370    -0.0030    -3.6900 ca         1 93N      -0.223300
     10 C10          3.4260    -0.0030    -3.6970 ca         1 93N       0.206100
     11 C11          4.1300    -0.0020    -2.5010 ca         1 93N      -0.235000
     12 C12          3.4500     0.0040    -1.3000 ca         1 93N      -0.047000
     13 O13          4.0970    -0.0030    -4.8780 os         1 93N      -0.313900
     14 C14          5.5240    -0.0030    -4.8130 c3         1 93N       0.145400
     15 C15          6.1000    -0.0040    -6.2310 c3         1 93N      -0.131400
     16 C16          7.6280    -0.0040    -6.1600 c3         1 93N       0.150800
     17 N17          8.1810    -0.0040    -7.5220 n3         1 93N      -0.702600
     18 C18         -2.1240     0.0030     1.0880 cg         1 93N       0.138800
     19 N19         -3.2600    -0.0160     1.0560 n1         1 93N      -0.335800
     20 C20          1.2770    -0.0040    -4.9920 c3         1 93N       0.687200
     21 F21          1.6110     1.1380    -5.7270 f          1 93N      -0.220300
     22 F22          1.6120    -1.1470    -5.7260 f          1 93N      -0.220300
     23 F23         -0.0970    -0.0040    -4.7290 f          1 93N      -0.220300
     24 C24          8.3890    -1.1890    -9.6540 c3         1 93N       0.166800
     25 N25          9.8380    -0.9510    -9.6340 n3         1 93N      -0.737600
     26 C26         10.1530     0.3050    -8.9390 c3         1 93N       0.166800
     27 C27          9.6320     0.2340    -7.5020 c3         1 93N       0.150300
     28 C28          7.8660    -1.2600    -8.2170 c3         1 93N       0.150300
     29 C29         10.3910    -0.9520   -10.9950 c3         1 93N       0.152100
     30 H3           3.1200    -0.0000     1.1880 ha         1 93N       0.145000
     31 H4           1.8860     0.0020     3.3370 ha         1 93N       0.147000
     32 H5          -0.6060     0.0030     3.2890 ha         1 93N       0.151000
     33 H8           0.2700    -0.0030    -2.4870 ha         1 93N       0.180000
     34 H11          5.2130    -0.0020    -2.5090 ha         1 93N       0.146000
     35 H12          3.9990     0.0080    -0.3670 ha         1 93N       0.136000
     36 H14          5.8630    -0.9060    -4.3180 h1         1 93N       0.035700
     37 H14A         5.8600     0.8620    -4.2550 h1         1 93N       0.035700
     38 H15          6.4410    -1.0010    -6.4820 hc         1 93N       0.081200
     39 H15A         5.3340     0.3030    -6.9320 hc         1 93N       0.081200
     40 H16          7.9850     1.0140    -6.0590 h1         1 93N       0.043700
     41 H16A         7.9510    -0.5860    -5.3050 h1         1 93N       0.043700
     42 H24          8.2010    -2.1730   -10.0680 h1         1 93N       0.042200
     43 H24A         7.9190    -0.4420   -10.2820 h1         1 93N       0.042200
     44 H26         11.2290     0.3910    -8.8410 h1         1 93N       0.042200
     45 H26A         9.7810     1.1340    -9.5280 h1         1 93N       0.042200
     46 H27         10.1070    -0.5470    -6.9200 h1         1 93N       0.043450
     47 H27A         9.8230     1.1930    -7.0360 h1         1 93N       0.043450
     48 H28          6.7900    -1.3540    -8.3010 h1         1 93N       0.043450
     49 H28A         8.2520    -2.0890    -7.6370 h1         1 93N       0.043450
     50 H29         10.1790    -1.9020   -11.4710 h1         1 93N       0.032700
     51 H29A        11.4630    -0.8030   -10.9490 h1         1 93N       0.032700
     52 H29B         9.9400    -0.1520   -11.5690 h1         1 93N       0.032700
@<TRIPOS>BOND
     1     2     1 ar
     2     1     6 ar
     3     7     2 1
     4     2     3 ar
     5     3     4 ar
     6     3    30 1
     7     4     5 ar
     8     4    31 1
     9     6     5 ar
    10     5    32 1
    11     6    18 1
    12    12     7 ar
    13     8     7 ar
    14     9     8 ar
    15     8    33 1
    16    10     9 ar
    17    20     9 1
    18    13    10 1
    19    10    11 ar
    20    11    12 ar
    21    11    34 1
    22    12    35 1
    23    13    14 1
    24    15    14 1
    25    14    36 1
    26    14    37 1
    27    16    15 1
    28    15    38 1
    29    15    39 1
    30    17    16 1
    31    16    40 1
    32    16    41 1
    33    27    17 1
    34    28    17 1
    35    18    19 3
    36    21    20 1
    37    20    23 1
    38    20    22 1
    39    25    24 1
    40    24    28 1
    41    24    42 1
    42    24    43 1
    43    29    25 1
    44    25    26 1
    45    26    27 1
    46    26    44 1
    47    26    45 1
    48    27    46 1
    49    27    47 1
    50    28    48 1
    51    28    49 1
    52    29    50 1
    53    29    51 1
    54    29    52 1
@<TRIPOS>SUBSTRUCTURE
     1 93N         1 TEMP              0 ****  ****    0 ROOT
