@<TRIPOS>MOLECULE
molecule
   16    16     1     0     0
SMALL
bcc


@<TRIPOS>ATOM
      1 C1           0.0000     0.0000     0.0000 ca         1 93Q      -0.208600
      2 C3           0.0710    -0.0110     2.3810 ca         1 93Q      -0.261300
      3 C4           1.4490     0.0000     2.3080 ca         1 93Q       0.423200
      4 C5           1.3910     0.0000     0.0000 ca         1 93Q       0.673200
      5 N1           2.0800     0.0000    -1.2070 nv         1 93Q      -1.081500
      6 C           -0.7640     0.0010    -1.3000 c3         1 93Q      -0.032800
      7 N            2.0640     0.0000     1.1410 nb         1 93Q      -0.709000
      8 C2          -0.6740    -0.0050     1.2080 ca         1 93Q      -0.093000
      9 H1          -0.4260    -0.0130     3.3440 ha         1 93Q       0.136000
     10 H2           2.0330    -0.0020     3.2200 h4         1 93Q       0.020100
     11 H3           2.3500     0.8670    -1.6280 hn         1 93Q       0.434800
     12 H4           2.3490    -0.8670    -1.6290 hn         1 93Q       0.434800
     13 H5          -1.8270     0.0050    -1.0940 hc         1 93Q       0.042700
     14 H6          -0.5030     0.8840    -1.8710 hc         1 93Q       0.042700
     15 H7          -0.5090    -0.8850    -1.8690 hc         1 93Q       0.042700
     16 H8          -1.7560    -0.0090     1.2380 ha         1 93Q       0.137000
@<TRIPOS>BOND
     1     2     3 ar
     2     2     8 ar
     3     3     7 ar
     4     8     1 ar
     5     7     4 ar
     6     1     4 ar
     7     1     6 1
     8     4     5 1
     9     2     9 1
    10     3    10 1
    11     5    11 1
    12     5    12 1
    13     6    13 1
    14     6    14 1
    15     6    15 1
    16     8    16 1
@<TRIPOS>SUBSTRUCTURE
     1 93Q         1 TEMP              0 ****  ****    0 ROOT
