@<TRIPOS>MOLECULE
93Q
   16    16     1     0     0
SMALL
bcc


@<TRIPOS>ATOM
      1 C1           0.0000     0.0000     0.0000 ca         1 93Q      -0.207600
      2 C3           0.0710    -0.0110     2.3810 ca         1 93Q      -0.223300
      3 C4           1.4490     0.0000     2.3080 ca         1 93Q       0.401200
      4 C5           1.3910     0.0000     0.0000 ca         1 93Q       0.494200
      5 N1           2.0800     0.0000    -1.2070 nv         1 93Q      -0.658500
      6 C           -0.7640     0.0010    -1.3000 c3         1 93Q       0.076200
      7 N            2.0640     0.0000     1.1410 nb         1 93Q      -0.588000
      8 C2          -0.6740    -0.0050     1.2080 ca         1 93Q      -0.069000
      9 H1          -0.4260    -0.0130     3.3440 ha         1 93Q       0.111000
     10 H2           2.0330    -0.0020     3.2200 h4         1 93Q      -0.022900
     11 H3           2.3500     0.8670    -1.6280 hn         1 93Q       0.275800
     12 H4           2.3490    -0.8670    -1.6290 hn         1 93Q       0.275800
     13 H5          -1.8270     0.0050    -1.0940 hc         1 93Q       0.008367
     14 H6          -0.5030     0.8840    -1.8710 hc         1 93Q       0.008367
     15 H7          -0.5090    -0.8850    -1.8690 hc         1 93Q       0.008367
     16 H8          -1.7560    -0.0090     1.2380 ha         1 93Q       0.110000
@<TRIPOS>BOND
     1     1     4 ar  
     2     1     6 1   
     3     1     8 ar  
     4     2     3 ar  
     5     2     8 ar  
     6     2     9 1   
     7     3     7 ar  
     8     3    10 1   
     9     4     5 1   
    10     4     7 ar  
    11     5    11 1   
    12     5    12 1   
    13     6    13 1   
    14     6    14 1   
    15     6    15 1   
    16     8    16 1   
@<TRIPOS>SUBSTRUCTURE
     1 93Q         1 TEMP              0 ****  ****    0 ROOT
