@<TRIPOS>MOLECULE
molecule
   59    60     1     0     0
SMALL
bcc


@<TRIPOS>ATOM
      1 C5           0.0000     0.0000     0.0000 c          1 93S       0.797100
      2 C6          11.2780     0.0230    -4.6630 c          1 93S       0.797100
      3 C7          -2.8570    -1.5160     0.4540 ca         1 93S      -0.307500
      4 C8          13.6170     1.5560    -6.3490 ca         1 93S      -0.307500
      5 C14         14.3310     2.6580    -5.9190 ca         1 93S      -0.025500
      6 C13         -3.0660    -2.6210     1.2590 ca         1 93S      -0.025500
      7 C19         -3.4850    -3.8130     0.6990 ca         1 93S      -0.001600
      8 C20         14.2300     3.8570    -6.6030 ca         1 93S      -0.001600
      9 C23          8.0420     0.0140    -2.8320 c3         1 93S      -0.103400
     10 C24          3.5840     0.0050    -0.9890 c3         1 93S      -0.103400
     11 C25         12.8040     1.6500    -7.4620 ca         1 93S      -0.000500
     12 C26         -3.0680    -1.6040    -0.9090 ca         1 93S      -0.000500
     13 C28         -3.4870    -2.7960    -1.4690 ca         1 93S      -0.147000
     14 C29         12.7030     2.8470    -8.1460 ca         1 93S      -0.147000
     15 C30          8.9090     0.0190    -4.0920 c3         1 93S       0.126000
     16 C31          2.0800     0.0050    -1.2680 c3         1 93S       0.126000
     17 C32          6.5640     0.0150    -3.2290 c3         1 93S       0.145400
     18 C33          4.3500     0.0100    -2.3140 c3         1 93S       0.145400
     19 C34         -3.6950    -3.9020    -0.6660 ca         1 93S      -0.065500
     20 C35         13.4150     3.9510    -7.7160 ca         1 93S      -0.065500
     21 N17          1.3480     0.0000     0.0000 ns         1 93S      -0.588400
     22 N18         10.3240     0.0180    -3.7110 ns         1 93S      -0.588400
     23 N3          12.5800     0.0210    -4.3130 ns         1 93S      -0.663300
     24 N4          -0.6740     0.0000     1.1670 ns         1 93S      -0.663300
     25 O10         13.3990    -0.9910    -6.4090 o          1 93S      -0.612800
     26 O11         14.9980     0.0600    -4.8010 o          1 93S      -0.612800
     27 O12         -2.7280     1.0310     0.2670 o          1 93S      -0.612800
     28 O15         -0.6080     0.0030    -1.0530 o          1 93S      -0.632100
     29 O16         10.9640     0.0270    -5.8390 o          1 93S      -0.632100
     30 O27          5.7540     0.0110    -2.0520 os         1 93S      -0.432600
     31 O9          -2.7320    -0.0280     2.5300 o          1 93S      -0.612800
     32 S1          -2.3310     0.0070     1.1670 sy         1 93S       1.431400
     33 S2          13.7510     0.0270    -5.4820 sy         1 93S       1.431400
     34 Cl21        -3.7470    -5.2010     1.7090 cl         1 93S      -0.102400
     35 Cl22        15.1260     5.2420    -6.0630 cl         1 93S      -0.102400
     36 H1          14.9690     2.5840    -5.0460 ha         1 93S       0.159000
     37 H2          -2.9010    -2.5520     2.3270 ha         1 93S       0.159000
     38 H3           8.2580     0.8970    -2.2410 hc         1 93S       0.059200
     39 H4           8.2580    -0.8720    -2.2480 hc         1 93S       0.059200
     40 H5           3.8450     0.8880    -0.4170 hc         1 93S       0.059200
     41 H6           3.8470    -0.8810    -0.4240 hc         1 93S       0.059200
     42 H7          12.2450     0.7850    -7.7990 ha         1 93S       0.176000
     43 H8          -2.9040    -0.7380    -1.5390 ha         1 93S       0.176000
     44 H9          -3.6510    -2.8650    -2.5380 ha         1 93S       0.146000
     45 H10         12.0640     2.9210    -9.0180 ha         1 93S       0.146000
     46 H11          8.6940    -0.8630    -4.6820 h1         1 93S       0.057950
     47 H12          8.6930     0.9060    -4.6760 h1         1 93S       0.057950
     48 H13          1.8180     0.8910    -1.8330 h1         1 93S       0.057950
     49 H14          1.8190    -0.8780    -1.8390 h1         1 93S       0.057950
     50 H15          6.3480     0.9020    -3.8130 h1         1 93S       0.030200
     51 H16          6.3480    -0.8670    -3.8190 h1         1 93S       0.030200
     52 H17          4.0890    -0.8720    -2.8850 h1         1 93S       0.030200
     53 H18          4.0870     0.8970    -2.8790 h1         1 93S       0.030200
     54 H19         -4.0230    -4.8360    -1.1040 ha         1 93S       0.147000
     55 H20         13.3360     4.8890    -8.2520 ha         1 93S       0.147000
     56 H21          1.8480    -0.0040     0.8670 hn         1 93S       0.315500
     57 H22         10.5820     0.0130    -2.7440 hn         1 93S       0.315500
     58 H23         12.8380    -0.0100    -3.3470 hn         1 93S       0.340500
     59 H24         -0.1740     0.0230     2.0340 hn         1 93S       0.340500
@<TRIPOS>BOND
     1    26    33 2
     2    11    14 ar
     3    11     4 ar
     4    14    20 ar
     5    33     4 1
     6    33    25 2
     7    33    23 1
     8     4     5 ar
     9    20     8 ar
    10     5     8 ar
    11     8    35 1
    12    23     2 1
    13     2    29 2
    14     2    22 1
    15    22    15 1
    16    15     9 1
    17    30    17 1
    18    30    18 1
    19    10    18 1
    20    10    16 1
    21     9    17 1
    22    16    21 1
    23    21     1 1
    24     1    28 2
    25     1    24 1
    26    24    32 1
    27    32     3 1
    28    32    31 2
    29    32    27 2
    30    12     3 ar
    31    12    13 ar
    32     3     6 ar
    33    13    19 ar
    34     6     7 ar
    35    19     7 ar
    36     7    34 1
    37     5    36 1
    38     6    37 1
    39     9    38 1
    40     9    39 1
    41    10    40 1
    42    10    41 1
    43    11    42 1
    44    12    43 1
    45    13    44 1
    46    14    45 1
    47    15    46 1
    48    15    47 1
    49    16    48 1
    50    16    49 1
    51    17    50 1
    52    17    51 1
    53    18    52 1
    54    18    53 1
    55    19    54 1
    56    20    55 1
    57    21    56 1
    58    22    57 1
    59    23    58 1
    60    24    59 1
@<TRIPOS>SUBSTRUCTURE
     1 93S         1 TEMP              0 ****  ****    0 ROOT
