@<TRIPOS>MOLECULE
93S
   59    60     1     0     0
SMALL
bcc


@<TRIPOS>ATOM
      1 C5           0.0000     0.0000     0.0000 c          1 93S       0.637600
      2 C6          11.2780     0.0230    -4.6630 c          1 93S       0.637600
      3 C7          -2.8570    -1.5160     0.4540 ca         1 93S      -0.151500
      4 C8          13.6170     1.5560    -6.3490 ca         1 93S      -0.151500
      5 C14         14.3310     2.6580    -5.9190 ca         1 93S       0.001000
      6 C13         -3.0660    -2.6210     1.2590 ca         1 93S       0.001000
      7 C19         -3.4850    -3.8130     0.6990 ca         1 93S      -0.075600
      8 C20         14.2300     3.8570    -6.6030 ca         1 93S      -0.075600
      9 C23          8.0420     0.0140    -2.8320 c3         1 93S      -0.050400
     10 C24          3.5840     0.0050    -0.9890 c3         1 93S      -0.050400
     11 C25         12.8040     1.6500    -7.4620 ca         1 93S       0.031000
     12 C26         -3.0680    -1.6040    -0.9090 ca         1 93S       0.031000
     13 C28         -3.4870    -2.7960    -1.4690 ca         1 93S      -0.126500
     14 C29         12.7030     2.8470    -8.1460 ca         1 93S      -0.126500
     15 C30          8.9090     0.0190    -4.0920 c3         1 93S       0.066000
     16 C31          2.0800     0.0050    -1.2680 c3         1 93S       0.066000
     17 C32          6.5640     0.0150    -3.2290 c3         1 93S       0.223400
     18 C33          4.3500     0.0100    -2.3140 c3         1 93S       0.223400
     19 C34         -3.6950    -3.9020    -0.6660 ca         1 93S      -0.043500
     20 C35         13.4150     3.9510    -7.7160 ca         1 93S      -0.043500
     21 N17          1.3480     0.0000     0.0000 ns         1 93S      -0.205400
     22 N18         10.3240     0.0180    -3.7110 ns         1 93S      -0.205400
     23 N3          12.5800     0.0210    -4.3130 ns         1 93S      -0.312300
     24 N4          -0.6740     0.0000     1.1670 ns         1 93S      -0.312300
     25 O10         13.3990    -0.9910    -6.4090 o          1 93S      -0.567800
     26 O11         14.9980     0.0600    -4.8010 o          1 93S      -0.567800
     27 O12         -2.7280     1.0310     0.2670 o          1 93S      -0.567800
     28 O15         -0.6080     0.0030    -1.0530 o          1 93S      -0.678100
     29 O16         10.9640     0.0270    -5.8390 o          1 93S      -0.678100
     30 O27          5.7540     0.0110    -2.0520 os         1 93S      -0.421600
     31 O9          -2.7320    -0.0280     2.5300 o          1 93S      -0.567800
     32 S1          -2.3310     0.0070     1.1670 sy         1 93S       1.054900
     33 S2          13.7510     0.0270    -5.4820 sy         1 93S       1.054900
     34 Cl21        -3.7470    -5.2010     1.7090 cl         1 93S      -0.019400
     35 Cl22        15.1260     5.2420    -6.0630 cl         1 93S      -0.019400
     36 H1          14.9690     2.5840    -5.0460 ha         1 93S       0.129000
     37 H2          -2.9010    -2.5520     2.3270 ha         1 93S       0.129000
     38 H3           8.2580     0.8970    -2.2410 hc         1 93S       0.025200
     39 H4           8.2580    -0.8720    -2.2480 hc         1 93S       0.025200
     40 H5           3.8450     0.8880    -0.4170 hc         1 93S       0.025200
     41 H6           3.8470    -0.8810    -0.4240 hc         1 93S       0.025200
     42 H7          12.2450     0.7850    -7.7990 ha         1 93S       0.148000
     43 H8          -2.9040    -0.7380    -1.5390 ha         1 93S       0.148000
     44 H9          -3.6510    -2.8650    -2.5380 ha         1 93S       0.114000
     45 H10         12.0640     2.9210    -9.0180 ha         1 93S       0.114000
     46 H11          8.6940    -0.8630    -4.6820 h1         1 93S       0.027700
     47 H12          8.6930     0.9060    -4.6760 h1         1 93S       0.027700
     48 H13          1.8180     0.8910    -1.8330 h1         1 93S       0.027700
     49 H14          1.8190    -0.8780    -1.8390 h1         1 93S       0.027700
     50 H15          6.3480     0.9020    -3.8130 h1         1 93S      -0.004800
     51 H16          6.3480    -0.8670    -3.8190 h1         1 93S      -0.004800
     52 H17          4.0890    -0.8720    -2.8850 h1         1 93S      -0.004800
     53 H18          4.0870     0.8970    -2.8790 h1         1 93S      -0.004800
     54 H19         -4.0230    -4.8360    -1.1040 ha         1 93S       0.112500
     55 H20         13.3360     4.8890    -8.2520 ha         1 93S       0.112500
     56 H21          1.8480    -0.0040     0.8670 hn         1 93S       0.172500
     57 H22         10.5820     0.0130    -2.7440 hn         1 93S       0.172500
     58 H23         12.8380    -0.0100    -3.3470 hn         1 93S       0.222500
     59 H24         -0.1740     0.0230     2.0340 hn         1 93S       0.222500
@<TRIPOS>BOND
     1     1    21 1   
     2     1    24 1   
     3     1    28 2   
     4     2    22 1   
     5     2    23 1   
     6     2    29 2   
     7     3     6 ar  
     8     3    12 ar  
     9     3    32 1   
    10     4     5 ar  
    11     4    11 ar  
    12     4    33 1   
    13     5     8 ar  
    14     5    36 1   
    15     6     7 ar  
    16     6    37 1   
    17     7    19 ar  
    18     7    34 1   
    19     8    20 ar  
    20     8    35 1   
    21     9    15 1   
    22     9    17 1   
    23     9    38 1   
    24     9    39 1   
    25    10    16 1   
    26    10    18 1   
    27    10    40 1   
    28    10    41 1   
    29    11    14 ar  
    30    11    42 1   
    31    12    13 ar  
    32    12    43 1   
    33    13    19 ar  
    34    13    44 1   
    35    14    20 ar  
    36    14    45 1   
    37    15    22 1   
    38    15    46 1   
    39    15    47 1   
    40    16    21 1   
    41    16    48 1   
    42    16    49 1   
    43    17    30 1   
    44    17    50 1   
    45    17    51 1   
    46    18    30 1   
    47    18    52 1   
    48    18    53 1   
    49    19    54 1   
    50    20    55 1   
    51    21    56 1   
    52    22    57 1   
    53    23    33 1   
    54    23    58 1   
    55    24    32 1   
    56    24    59 1   
    57    25    33 2   
    58    26    33 2   
    59    27    32 2   
    60    31    32 2   
@<TRIPOS>SUBSTRUCTURE
     1 93S         1 TEMP              0 ****  ****    0 ROOT
