@<TRIPOS>MOLECULE
molecule
   38    40     1     0     0
SMALL
bcc


@<TRIPOS>ATOM
      1 CAH          0.0000     0.0000     0.0000 ca         1 93T      -0.107000
      2 CAF          1.3800     0.0000     0.0000 ca         1 93T      -0.111000
      3 CAQ          2.0740     0.0000     1.1980 ca         1 93T      -0.019900
      4 Br           3.9650    -0.0000     1.1910 br         1 93T      -0.117100
      5 CAG          1.3880    -0.0000     2.4000 ca         1 93T      -0.111000
      6 CAI          0.0090    -0.0010     2.4100 ca         1 93T      -0.107000
      7 CAS         -0.6950     0.0050     1.2080 ca         1 93T      -0.059900
      8 CAT         -2.1790     0.0060     1.2120 cc         1 93T       0.435200
      9 CAJ         -2.9980     0.0060     0.0810 cc         1 93T      -0.379600
     10 NAN         -2.9460     0.0010     2.2890 nd         1 93T      -0.588100
     11 NAW         -4.2860     0.0030     1.8870 na         1 93T       0.057200
     12 CAR         -5.4570     0.0000     2.5890 cd         1 93T       0.033400
     13 CAB         -5.4440    -0.0070     4.0960 c3         1 93T      -0.050800
     14 CAV         -4.3140     0.0060     0.5150 cd         1 93T       0.415500
     15 NAM         -5.4830     0.0060    -0.1410 nd         1 93T      -0.708000
     16 CAP         -6.6210     0.0060     0.5110 cc         1 93T       0.488600
     17 CAA         -7.9220     0.0050    -0.2500 c3         1 93T      -0.144400
     18 CAU         -6.6320     0.0050     1.9130 cc         1 93T      -0.236600
     19 CAL         -7.9400     0.0040     2.6620 c3         1 93T      -0.017100
     20 CAK         -8.4440     1.4410     2.8090 c3         1 93T      -0.181400
     21 CAO         -9.7520     1.4400     3.5580 c          1 93T       0.889600
     22 OAD        -10.2310     0.3980     3.9360 o          1 93T      -0.848300
     23 OAC        -10.3840     2.5990     3.8050 o          1 93T      -0.848300
     24 H1          -0.5420     0.0030    -0.9380 ha         1 93T       0.151000
     25 H2           1.9210    -0.0040    -0.9390 ha         1 93T       0.139500
     26 H3           1.9360    -0.0030     3.3350 ha         1 93T       0.139500
     27 H4          -0.5270     0.0010     3.3510 ha         1 93T       0.151000
     28 H5          -2.6660     0.1120    -0.9450 ha         1 93T       0.159000
     29 H6          -5.9190     0.8930     4.4660 hc         1 93T       0.066033
     30 H7          -4.4200    -0.0450     4.4480 hc         1 93T       0.066033
     31 H8          -5.9830    -0.8750     4.4580 hc         1 93T       0.066033
     32 H9          -8.4000     0.9720    -0.1500 hc         1 93T       0.062367
     33 H10         -7.7280    -0.1950    -1.2970 hc         1 93T       0.062367
     34 H11         -8.5730    -0.7630     0.1490 hc         1 93T       0.062367
     35 H12         -8.6700    -0.5810     2.1150 hc         1 93T       0.062200
     36 H13         -7.7940    -0.4290     3.6440 hc         1 93T       0.062200
     37 H14         -8.5910     1.8740     1.8270 hc         1 93T       0.033200
     38 H15         -7.7150     2.0250     3.3560 hc         1 93T       0.033200
@<TRIPOS>BOND
     1     5     6 ar
     2     5     3 ar
     3     6     7 ar
     4     4     3 1
     5     9    14 2
     6     9     8 1
     7     3     2 ar
     8     7     8 1
     9     7     1 ar
    10    15    14 1
    11    15    16 2
    12    14    11 1
    13     8    10 2
    14    17    16 1
    15     2     1 ar
    16    16    18 1
    17    10    11 1
    18    11    12 1
    19    18    12 2
    20    18    19 1
    21    12    13 1
    22    22    21 1
    23    19    20 1
    24    21    23 1
    25    21    20 1
    26     1    24 1
    27     2    25 1
    28     5    26 1
    29     6    27 1
    30     9    28 1
    31    13    29 1
    32    13    30 1
    33    13    31 1
    34    17    32 1
    35    17    33 1
    36    17    34 1
    37    19    35 1
    38    19    36 1
    39    20    37 1
    40    20    38 1
@<TRIPOS>SUBSTRUCTURE
     1 93T         1 TEMP              0 ****  ****    0 ROOT
