@<TRIPOS>MOLECULE
93W
   44    47     1     0     0
SMALL
bcc


@<TRIPOS>ATOM
      1 C24          0.0000     0.0000     0.0000 cc         1 93W      -0.298100
      2 C19          2.2380     0.0000    -1.2130 c3         1 93W       0.062800
      3 C20          1.3430     0.0000     0.0000 cd         1 93W      -0.111400
      4 C21          1.7720     0.0000     1.4000 ca         1 93W      -0.092800
      5 C16          3.6340    -1.4270    -2.6830 c          1 93W       0.975600
      6 C10          0.2360    -5.6880    -2.0450 ca         1 93W       0.097800
      7 C01         -3.2330    -7.7150    -3.2030 ca         1 93W      -0.101000
      8 C02         -2.1560    -8.4300    -2.6860 ca         1 93W      -0.106000
      9 C03         -1.0140    -7.7930    -2.3010 ca         1 93W      -0.073000
     10 C04         -0.9220    -6.4020    -2.4280 ca         1 93W      -0.071000
     11 C05         -2.0180    -5.6720    -2.9540 ca         1 93W      -0.122300
     12 C06         -3.1770    -6.3590    -3.3400 ca         1 93W      -0.087000
     13 C07         -1.9100    -4.2710    -3.0750 ca         1 93W       0.382300
     14 N08         -0.8140    -3.6580    -2.7060 nb         1 93W      -0.516000
     15 C09          0.2410    -4.3050    -2.1990 ca         1 93W       0.303800
     16 O13          2.4040    -4.1150    -1.3430 o          1 93W      -0.647100
     17 N14          1.4550    -2.1980    -1.9440 ns         1 93W      -0.102900
     18 C15          2.6430    -1.4370    -1.5480 c3         1 93W      -0.104300
     19 C22          0.5930    -0.0000     2.1680 ca         1 93W      -0.227200
     20 N23         -0.4650     0.0060     1.2880 na         1 93W       0.339600
     21 C25          0.6840    -0.0000     3.5560 ca         1 93W      -0.124000
     22 C26          1.9220    -0.0000     4.1600 ca         1 93W      -0.093000
     23 C27          3.0820     0.0000     3.3990 ca         1 93W      -0.155000
     24 C28          3.0160    -0.0060     2.0330 ca         1 93W      -0.018000
     25 H1          -0.6220    -0.0040    -0.8870 h4         1 93W       0.142000
     26 H2           3.1260     0.5860    -1.0070 hc         1 93W       0.031700
     27 H3           1.7080     0.4320    -2.0530 hc         1 93W       0.031700
     28 H4           1.7990    -6.7350    -2.2370 ho         1 93W       0.411000
     29 H5          -4.1300    -8.2450    -3.5020 ha         1 93W       0.096000
     30 H6          -2.2270    -9.5060    -2.5880 ha         1 93W       0.098000
     31 H7          -0.1820    -8.3600    -1.9010 ha         1 93W       0.115000
     32 H8          -4.0230    -5.8170    -3.7430 ha         1 93W       0.114000
     33 H9           0.6800    -1.7300    -2.3690 hn         1 93W       0.166500
     34 H10          3.0940    -1.8980    -0.6780 h1         1 93W       0.061700
     35 H12         -1.4310     0.0080     1.5500 hn         1 93W       0.102700
     36 H13         -0.2150    -0.0010     4.1600 ha         1 93W       0.088000
     37 H14          1.9910     0.0050     5.2410 ha         1 93W       0.087000
     38 H15          4.0480    -0.0000     3.8900 ha         1 93W       0.097000
     39 H16          3.9250    -0.0060     1.4450 ha         1 93W       0.121000
     40 O17          4.8050    -0.7850    -2.5460 o          1 93W      -0.889800
     41 C12          1.4360    -3.5390    -1.8010 c          1 93W       0.468600
     42 O11          1.3120    -6.3340    -1.5360 oh         1 93W      -0.456100
     43 O18          3.3760    -1.9990    -3.7160 o          1 93W      -0.889800
     44 Cl1         -3.2370    -3.3550    -3.7160 cl         1 93W      -0.112000
@<TRIPOS>BOND
     1     1     3 2   
     2     1    20 1   
     3     1    25 1   
     4     2     3 1   
     5     2    18 1   
     6     2    26 1   
     7     2    27 1   
     8     3     4 1   
     9     4    19 ar  
    10     4    24 ar  
    11     5    18 1   
    12     5    40 1   
    13     5    43 1   
    14     6    10 ar  
    15     6    15 ar  
    16     6    42 1   
    17     7     8 ar  
    18     7    12 ar  
    19     7    29 1   
    20     8     9 ar  
    21     8    30 1   
    22     9    10 ar  
    23     9    31 1   
    24    10    11 ar  
    25    11    12 ar  
    26    11    13 ar  
    27    12    32 1   
    28    13    14 ar  
    29    13    44 1   
    30    14    15 ar  
    31    15    41 1   
    32    16    41 2   
    33    17    18 1   
    34    17    33 1   
    35    17    41 1   
    36    18    34 1   
    37    19    20 1   
    38    19    21 ar  
    39    20    35 1   
    40    21    22 ar  
    41    21    36 1   
    42    22    23 ar  
    43    22    37 1   
    44    23    24 ar  
    45    23    38 1   
    46    24    39 1   
    47    28    42 1   
@<TRIPOS>SUBSTRUCTURE
     1 93W         1 TEMP              0 ****  ****    0 ROOT
