@<TRIPOS>MOLECULE
molecule
   58    59     1     0     0
SMALL
bcc


@<TRIPOS>ATOM
      1 C5           0.0000     0.0000     0.0000 c          1 93Y       0.796100
      2 C6          10.2030     0.0220    -4.3500 c          1 93Y       0.796100
      3 C7          -2.8580    -1.5150     0.4530 ca         1 93Y      -0.307500
      4 C8          13.0540    -1.5010    -4.8120 ca         1 93Y      -0.307500
      5 C14         13.2530    -1.6010    -3.4480 ca         1 93Y      -0.009500
      6 C13         -3.0670    -2.6210     1.2560 ca         1 93Y      -0.009500
      7 C19         -3.4870    -3.8130     0.6950 ca         1 93Y      -0.001100
      8 C20         13.6570    -2.8030    -2.8950 ca         1 93Y      -0.001100
      9 C23         -3.0690    -1.6020    -0.9110 ca         1 93Y      -0.016500
     10 C24         13.2590    -2.6020    -5.6240 ca         1 93Y      -0.016500
     11 C25         -3.4880    -2.7930    -1.4710 ca         1 93Y      -0.148500
     12 C26         13.6630    -3.8020    -5.0720 ca         1 93Y      -0.148500
     13 C27          8.1220     0.0150    -3.0800 c3         1 93Y       0.124500
     14 C28          2.0810     0.0060    -1.2680 c3         1 93Y       0.124500
     15 C29         -3.6980    -3.8990    -0.6690 ca         1 93Y      -0.066000
     16 C30         13.8620    -3.9040    -3.7080 ca         1 93Y      -0.066000
     17 C31          3.5850     0.0060    -0.9890 c3         1 93Y      -0.102400
     18 C32          6.6180     0.0170    -3.3600 c3         1 93Y      -0.102400
     19 C33          4.3490     0.0110    -2.3140 c3         1 93Y      -0.077400
     20 C34          5.8530     0.0100    -2.0340 c3         1 93Y      -0.077400
     21 N17          1.3480     0.0000     0.0000 ns         1 93Y      -0.589900
     22 N18          8.8550     0.0220    -4.3500 ns         1 93Y      -0.589900
     23 N3          10.8770     0.0280    -5.5160 ns         1 93Y      -0.664300
     24 N4          -0.6740     0.0000     1.1670 ns         1 93Y      -0.664300
     25 O10         12.9340     1.0450    -4.6090 o          1 93Y      -0.612800
     26 O11         12.9330    -0.0000    -6.8800 o          1 93Y      -0.612800
     27 O12         -2.7270     1.0320     0.2680 o          1 93Y      -0.612800
     28 O15         -0.6090     0.0050    -1.0520 o          1 93Y      -0.631100
     29 O16         10.8110     0.0170    -3.2960 o          1 93Y      -0.631100
     30 O9          -2.7320    -0.0290     2.5310 o          1 93Y      -0.612800
     31 S1          -2.3300     0.0060     1.1680 sy         1 93Y       1.430400
     32 S2          12.5320     0.0280    -5.5170 sy         1 93Y       1.430400
     33 Cl21        -3.7490    -5.2020     1.7040 cl         1 93Y      -0.100400
     34 Cl22        13.9080    -2.9300    -1.1820 cl         1 93Y      -0.100400
     35 H1          13.0920    -0.7390    -2.8120 ha         1 93Y       0.172500
     36 H2          -2.9020    -2.5530     2.3250 ha         1 93Y       0.172500
     37 H3          -2.9050    -0.7360    -1.5400 ha         1 93Y       0.162500
     38 H4          13.1030    -2.5220    -6.6930 ha         1 93Y       0.162500
     39 H5          -3.6530    -2.8600    -2.5400 ha         1 93Y       0.143500
     40 H6          13.8230    -4.6640    -5.7080 ha         1 93Y       0.143500
     41 H7           8.3840    -0.8720    -2.5170 h1         1 93Y       0.058200
     42 H8           8.3840     0.8970    -2.5080 h1         1 93Y       0.058200
     43 H9           1.8190    -0.8760    -1.8400 h1         1 93Y       0.058200
     44 H10          1.8180     0.8930    -1.8320 h1         1 93Y       0.058200
     45 H11         -4.0260    -4.8330    -1.1090 ha         1 93Y       0.146000
     46 H12         14.1780    -4.8450    -3.2760 ha         1 93Y       0.146000
     47 H13          3.8470    -0.8810    -0.4250 hc         1 93Y       0.048200
     48 H14          3.8460     0.8880    -0.4170 hc         1 93Y       0.048200
     49 H15          6.3560     0.9040    -3.9230 hc         1 93Y       0.048200
     50 H16          6.3560    -0.8650    -3.9320 hc         1 93Y       0.048200
     51 H17          4.0870     0.8980    -2.8780 hc         1 93Y       0.048200
     52 H18          4.0870    -0.8710    -2.8860 hc         1 93Y       0.048200
     53 H19          6.1150    -0.8770    -1.4710 hc         1 93Y       0.048200
     54 H20          6.1150     0.8920    -1.4620 hc         1 93Y       0.048200
     55 H21          1.8480    -0.0040     0.8670 hn         1 93Y       0.313000
     56 H22          8.3550     0.0370    -5.2160 hn         1 93Y       0.313000
     57 H23         10.3760     0.0500    -6.3830 hn         1 93Y       0.340000
     58 H24         -0.1730     0.0210     2.0340 hn         1 93Y       0.340000
@<TRIPOS>BOND
     1    27    31 2
     2     9    11 ar
     3     9     3 ar
     4    11    15 ar
     5    31     3 1
     6    31    30 2
     7    31    24 1
     8     3     6 ar
     9    15     7 ar
    10     6     7 ar
    11     7    33 1
    12    24     1 1
    13     1    28 2
    14     1    21 1
    15    21    14 1
    16    14    17 1
    17    19    17 1
    18    19    20 1
    19    18    20 1
    20    18    13 1
    21    13    22 1
    22    22     2 1
    23     2    29 2
    24     2    23 1
    25    23    32 1
    26    32     4 1
    27    32    25 2
    28    32    26 2
    29     4    10 ar
    30     4     5 ar
    31    10    12 ar
    32     5     8 ar
    33    12    16 ar
    34     8    16 ar
    35     8    34 1
    36     5    35 1
    37     6    36 1
    38     9    37 1
    39    10    38 1
    40    11    39 1
    41    12    40 1
    42    13    41 1
    43    13    42 1
    44    14    43 1
    45    14    44 1
    46    15    45 1
    47    16    46 1
    48    17    47 1
    49    17    48 1
    50    18    49 1
    51    18    50 1
    52    19    51 1
    53    19    52 1
    54    20    53 1
    55    20    54 1
    56    21    55 1
    57    22    56 1
    58    23    57 1
    59    24    58 1
@<TRIPOS>SUBSTRUCTURE
     1 93Y         1 TEMP              0 ****  ****    0 ROOT
