@<TRIPOS>MOLECULE
93Y
   58    59     1     0     0
SMALL
bcc


@<TRIPOS>ATOM
      1 C5           0.0000     0.0000     0.0000 c          1 93Y       0.637100
      2 C6          10.2030     0.0220    -4.3500 c          1 93Y       0.637100
      3 C7          -2.8580    -1.5150     0.4530 ca         1 93Y      -0.151500
      4 C8          13.0540    -1.5010    -4.8120 ca         1 93Y      -0.151500
      5 C14         13.2530    -1.6010    -3.4480 ca         1 93Y       0.017000
      6 C13         -3.0670    -2.6210     1.2560 ca         1 93Y       0.017000
      7 C19         -3.4870    -3.8130     0.6950 ca         1 93Y      -0.075100
      8 C20         13.6570    -2.8030    -2.8950 ca         1 93Y      -0.075100
      9 C23         -3.0690    -1.6020    -0.9110 ca         1 93Y       0.015000
     10 C24         13.2590    -2.6020    -5.6240 ca         1 93Y       0.015000
     11 C25         -3.4880    -2.7930    -1.4710 ca         1 93Y      -0.128500
     12 C26         13.6630    -3.8020    -5.0720 ca         1 93Y      -0.128500
     13 C27          8.1220     0.0150    -3.0800 c3         1 93Y       0.062000
     14 C28          2.0810     0.0060    -1.2680 c3         1 93Y       0.062000
     15 C29         -3.6980    -3.8990    -0.6690 ca         1 93Y      -0.043500
     16 C30         13.8620    -3.9040    -3.7080 ca         1 93Y      -0.043500
     17 C31          3.5850     0.0060    -0.9890 c3         1 93Y      -0.042400
     18 C32          6.6180     0.0170    -3.3600 c3         1 93Y      -0.042400
     19 C33          4.3490     0.0110    -2.3140 c3         1 93Y      -0.021400
     20 C34          5.8530     0.0100    -2.0340 c3         1 93Y      -0.021400
     21 N17          1.3480     0.0000     0.0000 ns         1 93Y      -0.206900
     22 N18          8.8550     0.0220    -4.3500 ns         1 93Y      -0.206900
     23 N3          10.8770     0.0280    -5.5160 ns         1 93Y      -0.312300
     24 N4          -0.6740     0.0000     1.1670 ns         1 93Y      -0.312300
     25 O10         12.9340     1.0450    -4.6090 o          1 93Y      -0.567550
     26 O11         12.9330    -0.0000    -6.8800 o          1 93Y      -0.567550
     27 O12         -2.7270     1.0320     0.2680 o          1 93Y      -0.567550
     28 O15         -0.6090     0.0050    -1.0520 o          1 93Y      -0.677600
     29 O16         10.8110     0.0170    -3.2960 o          1 93Y      -0.677600
     30 O9          -2.7320    -0.0290     2.5310 o          1 93Y      -0.567550
     31 S1          -2.3300     0.0060     1.1680 sy         1 93Y       1.053900
     32 S2          12.5320     0.0280    -5.5170 sy         1 93Y       1.053900
     33 Cl21        -3.7490    -5.2020     1.7040 cl         1 93Y      -0.016400
     34 Cl22        13.9080    -2.9300    -1.1820 cl         1 93Y      -0.016400
     35 H1          13.0920    -0.7390    -2.8120 ha         1 93Y       0.142500
     36 H2          -2.9020    -2.5530     2.3250 ha         1 93Y       0.142500
     37 H3          -2.9050    -0.7360    -1.5400 ha         1 93Y       0.134000
     38 H4          13.1030    -2.5220    -6.6930 ha         1 93Y       0.134000
     39 H5          -3.6530    -2.8600    -2.5400 ha         1 93Y       0.112000
     40 H6          13.8230    -4.6640    -5.7080 ha         1 93Y       0.112000
     41 H7           8.3840    -0.8720    -2.5170 h1         1 93Y       0.028450
     42 H8           8.3840     0.8970    -2.5080 h1         1 93Y       0.028450
     43 H9           1.8190    -0.8760    -1.8400 h1         1 93Y       0.028450
     44 H10          1.8180     0.8930    -1.8320 h1         1 93Y       0.028450
     45 H11         -4.0260    -4.8330    -1.1090 ha         1 93Y       0.112000
     46 H12         14.1780    -4.8450    -3.2760 ha         1 93Y       0.112000
     47 H13          3.8470    -0.8810    -0.4250 hc         1 93Y       0.017950
     48 H14          3.8460     0.8880    -0.4170 hc         1 93Y       0.017950
     49 H15          6.3560     0.9040    -3.9230 hc         1 93Y       0.017950
     50 H16          6.3560    -0.8650    -3.9320 hc         1 93Y       0.017950
     51 H17          4.0870     0.8980    -2.8780 hc         1 93Y       0.019200
     52 H18          4.0870    -0.8710    -2.8860 hc         1 93Y       0.019200
     53 H19          6.1150    -0.8770    -1.4710 hc         1 93Y       0.019200
     54 H20          6.1150     0.8920    -1.4620 hc         1 93Y       0.019200
     55 H21          1.8480    -0.0040     0.8670 hn         1 93Y       0.171000
     56 H22          8.3550     0.0370    -5.2160 hn         1 93Y       0.171000
     57 H23         10.3760     0.0500    -6.3830 hn         1 93Y       0.222500
     58 H24         -0.1730     0.0210     2.0340 hn         1 93Y       0.222500
@<TRIPOS>BOND
     1     1    21 1   
     2     1    24 1   
     3     1    28 2   
     4     2    22 1   
     5     2    23 1   
     6     2    29 2   
     7     3     6 ar  
     8     3     9 ar  
     9     3    31 1   
    10     4     5 ar  
    11     4    10 ar  
    12     4    32 1   
    13     5     8 ar  
    14     5    35 1   
    15     6     7 ar  
    16     6    36 1   
    17     7    15 ar  
    18     7    33 1   
    19     8    16 ar  
    20     8    34 1   
    21     9    11 ar  
    22     9    37 1   
    23    10    12 ar  
    24    10    38 1   
    25    11    15 ar  
    26    11    39 1   
    27    12    16 ar  
    28    12    40 1   
    29    13    18 1   
    30    13    22 1   
    31    13    41 1   
    32    13    42 1   
    33    14    17 1   
    34    14    21 1   
    35    14    43 1   
    36    14    44 1   
    37    15    45 1   
    38    16    46 1   
    39    17    19 1   
    40    17    47 1   
    41    17    48 1   
    42    18    20 1   
    43    18    49 1   
    44    18    50 1   
    45    19    20 1   
    46    19    51 1   
    47    19    52 1   
    48    20    53 1   
    49    20    54 1   
    50    21    55 1   
    51    22    56 1   
    52    23    32 1   
    53    23    57 1   
    54    24    31 1   
    55    24    58 1   
    56    25    32 2   
    57    26    32 2   
    58    27    31 2   
    59    30    31 2   
@<TRIPOS>SUBSTRUCTURE
     1 93Y         1 TEMP              0 ****  ****    0 ROOT
