@<TRIPOS>MOLECULE
molecule
   30    30     1     0     0
SMALL
bcc


@<TRIPOS>ATOM
      1 C4           0.0000     0.0000     0.0000 c3         1 93Z       0.125100
      2 C5           1.5300     0.0000     0.0000 c3         1 93Z      -0.069700
      3 C6           2.0410     0.0000     1.4430 c3         1 93Z       0.188100
      4 C3          -0.5090    -1.2500     0.7210 c3         1 93Z       0.103100
      5 C2           0.0010    -1.2500     2.1630 c3         1 93Z       0.086100
      6 C1           1.5310    -1.2500     2.1630 c3         1 93Z       0.113100
      7 C8           2.0390     1.2500    -0.7210 c3         1 93Z       0.148400
      8 O7           3.4700     0.0010     1.4430 os         1 93Z      -0.591500
      9 O9           1.6620     1.1940    -2.0970 oh         1 93Z      -0.604800
     10 O10         -0.4760     0.0010    -1.3470 oh         1 93Z      -0.571800
     11 O11         -1.9380    -1.2500     0.7210 oh         1 93Z      -0.602800
     12 O12         -0.4740    -2.4180     2.8370 oh         1 93Z      -0.600800
     13 S13          4.0880     0.7980     2.5810 s6         1 93Z       1.554300
     14 O14          5.4830     0.8600     2.3160 o          1 93Z      -0.729867
     15 O15          3.2770     1.9520     2.7500 o          1 93Z      -0.729867
     16 O16          3.9290    -0.0290     3.8490 o          1 93Z      -0.729867
     17 H1          -0.3590     0.8830     0.5150 h1         1 93Z       0.027700
     18 H2           1.8900    -0.8870    -0.5080 hc         1 93Z       0.081700
     19 H3           1.6750     0.8830     1.9530 h1         1 93Z       0.097700
     20 H4          -0.1430    -2.1330     0.2100 h1         1 93Z       0.102700
     21 H5          -0.3590    -0.3640     2.6710 h1         1 93Z       0.042700
     22 H6           1.8900    -2.1320     1.6480 h1         1 93Z       0.047700
     23 H8           1.6060     2.1320    -0.2630 h1         1 93Z       0.037200
     24 H9           3.1190     1.2970    -0.6440 h1         1 93Z       0.037200
     25 H10          2.2030     1.7830    -2.5960 ho         1 93Z       0.386000
     26 H11         -1.2960     0.4640    -1.3900 ho         1 93Z       0.392000
     27 H12         -2.2530    -0.5390     1.2530 ho         1 93Z       0.387000
     28 H13         -1.0130    -2.1620     3.5670 ho         1 93Z       0.401000
     29 O1           2.0080    -1.2500     3.5110 oh         1 93Z      -0.527800
     30 H14          2.1280    -2.1390     3.8020 ho         1 93Z       0.399000
@<TRIPOS>BOND
     1    12     5 1
     2    14    13 1
     3     6     5 1
     4     6     3 1
     5     5     4 1
     6     8    13 1
     7     8     3 1
     8    13    15 1
     9    13    16 1
    10     3     2 1
    11     4    11 1
    12     4     1 1
    13     2     1 1
    14     2     7 1
    15     1    10 1
    16     7     9 1
    17     1    17 1
    18     2    18 1
    19     3    19 1
    20     4    20 1
    21     5    21 1
    22     6    22 1
    23     7    23 1
    24     7    24 1
    25     9    25 1
    26    10    26 1
    27    11    27 1
    28    12    28 1
    29     6    29 1
    30    29    30 1
@<TRIPOS>SUBSTRUCTURE
     1 93Z         1 TEMP              0 ****  ****    0 ROOT
