@<TRIPOS>MOLECULE
molecule
   77    78     1     0     0
SMALL
bcc


@<TRIPOS>ATOM
      1 C1           0.0000     0.0000     0.0000 ca         1 941      -0.159000
      2 C2           1.3870     0.0000     0.0000 ca         1 941       0.183100
      3 C3           2.0790     0.0000     1.2030 ca         1 941      -0.159000
      4 C4           1.3840     0.0030     2.3970 ca         1 941      -0.127000
      5 C5           0.0020    -0.0030     2.3950 ca         1 941      -0.165300
      6 C6          -0.6900    -0.0020     1.1970 ca         1 941      -0.127000
      7 C9          -1.0080    -1.4480     4.1390 c3         1 941       0.080700
      8 N1          -1.8970    -2.1020     3.1760 ns         1 941      -0.546900
      9 C10         -3.1300    -1.6060     2.9530 c          1 941       0.770100
     10 C11         -1.6530    -1.4520     5.5010 c          1 941       0.639100
     11 N2          -0.8970    -1.2850     6.6050 ns         1 941      -0.599900
     12 C12         -1.5240    -1.2880     7.9290 c3         1 941       0.119000
     13 C13         -0.4530    -1.0800     9.0010 c3         1 941      -0.101400
     14 C14         -0.0350    -0.8760    11.4560 c3         1 941       0.111400
     15 C15         -1.1070    -1.0850    10.3840 c3         1 941      -0.082400
     16 O1          -0.6480    -0.8800    12.7470 os         1 941      -0.284900
     17 O4          -3.5050    -0.6170     3.5520 o          1 941      -0.603000
     18 O9          -3.9470    -2.2070     2.0680 os         1 941      -0.449900
     19 C8           2.0050     1.3350    -1.6880 c3         1 941      -0.078900
     20 O8          -2.8510    -1.6050     5.6040 o          1 941      -0.583100
     21 C7          -0.7530    -0.0040     3.6990 c3         1 941      -0.037100
     22 C16          3.2450     2.0880    -1.2780 c          1 941       0.908100
     23 C24          1.9160     1.2930    -3.1910 c          1 941       0.908100
     24 O6           1.8480     2.4360    -3.8920 o          1 941      -0.859050
     25 O7           1.9080     0.2300    -3.7660 o          1 941      -0.859050
     26 C32          0.3460    -0.6930    13.6520 ca         1 941       0.190100
     27 C33          1.6560    -0.5440    13.2260 ca         1 941      -0.251000
     28 C34          2.6700    -0.3540    14.1450 ca         1 941      -0.041000
     29 C35          2.3890    -0.3040    15.4990 ca         1 941      -0.246000
     30 C36          1.0870    -0.4440    15.9470 ca         1 941       0.192100
     31 C37          0.0500    -0.6390    15.0220 ca         1 941      -0.168600
     32 C38         -1.3380    -0.7890    15.4860 c          1 941       0.680700
     33 O11         -2.0470     0.1910    15.6120 o          1 941      -0.539000
     34 O12         -1.8240    -2.0130    15.7730 os         1 941      -0.428900
     35 C39         -3.1940    -2.1610    16.2320 c3         1 941       0.147700
     36 O13          0.8150    -0.3950    17.2750 oh         1 941      -0.501100
     37 O3           4.1340     1.5160    -0.6950 o          1 941      -0.859050
     38 O5           3.3600     3.3950    -1.5620 o          1 941      -0.859050
     39 O2           2.0670     0.0020    -1.1760 os         1 941      -0.292900
     40 C41         -5.2770    -1.6740     1.8290 c3         1 941       0.189800
     41 C42         -5.1650    -0.2380     1.3120 c3         1 941      -0.107100
     42 C43         -5.9920    -2.5360     0.7870 c3         1 941      -0.107100
     43 C44         -6.0740    -1.6860     3.1340 c3         1 941      -0.107100
     44 H1          -0.5420     0.0000    -0.9380 ha         1 941       0.158500
     45 H3           3.1620     0.0020     1.2050 ha         1 941       0.158500
     46 H4           1.9240     0.0030     3.3360 ha         1 941       0.100500
     47 H6          -1.7730    -0.0040     1.1970 ha         1 941       0.100500
     48 H9          -0.0670    -1.9830     4.1840 h1         1 941       0.069700
     49 HN1         -1.6060    -2.9440     2.7190 hn         1 941       0.326500
     50 HN2          0.0970    -1.2000     6.5220 hn         1 941       0.312500
     51 H121        -2.0190    -2.2370     8.0920 h1         1 941       0.051200
     52 H122        -2.2520    -0.4870     7.9850 h1         1 941       0.051200
     53 H131         0.2750    -1.8800     8.9440 hc         1 941       0.047200
     54 H132         0.0410    -0.1300     8.8390 hc         1 941       0.047200
     55 H141         0.4590     0.0740    11.2930 h1         1 941       0.046200
     56 H142         0.6930    -1.6770    11.3990 h1         1 941       0.046200
     57 H151        -1.8360    -0.2850    10.4410 hc         1 941       0.060700
     58 H152        -1.6010    -2.0350    10.5470 hc         1 941       0.060700
     59 H8           1.1310     1.8340    -1.2880 h1         1 941       0.031700
     60 H71         -0.1680     0.5060     4.4550 hc         1 941       0.063200
     61 H72         -1.6990     0.5060     3.5690 hc         1 941       0.063200
     62 H33          1.8870    -0.5820    12.1680 ha         1 941       0.156000
     63 H34          3.6910    -0.2410    13.8030 ha         1 941       0.137000
     64 H35          3.1920    -0.1540    16.2110 ha         1 941       0.136000
     65 H391        -3.8630    -1.6780    15.5310 h1         1 941       0.045033
     66 H392        -3.3000    -1.7030    17.2070 h1         1 941       0.045033
     67 H393        -3.4400    -3.2140    16.2990 h1         1 941       0.045033
     68 H13          1.3220     0.2920    17.6750 ho         1 941       0.428000
     69 H421        -4.8830     0.4180     2.1270 hc         1 941       0.047256
     70 H422        -6.1200     0.0760     0.9080 hc         1 941       0.047256
     71 H423        -4.4120    -0.1930     0.5350 hc         1 941       0.047256
     72 H431        -6.0640    -3.5550     1.1490 hc         1 941       0.047256
     73 H432        -6.9860    -2.1430     0.6140 hc         1 941       0.047256
     74 H433        -5.4310    -2.5220    -0.1400 hc         1 941       0.047256
     75 H441        -7.1340    -1.6860     2.9100 hc         1 941       0.047256
     76 H442        -5.8250    -2.5740     3.7020 hc         1 941       0.047256
     77 H443        -5.8280    -0.8050     3.7150 hc         1 941       0.047256
@<TRIPOS>BOND
     1     1     2 ar
     2     1     6 ar
     3     1    44 1
     4     2     3 ar
     5     2    39 1
     6     3     4 ar
     7     3    45 1
     8     4     5 ar
     9     4    46 1
    10     5     6 ar
    11     5    21 1
    12     6    47 1
    13     7     8 1
    14     7    10 1
    15     7    21 1
    16     7    48 1
    17     8     9 1
    18     8    49 1
    19     9    17 2
    20     9    18 1
    21    10    11 1
    22    10    20 2
    23    11    12 1
    24    11    50 1
    25    12    13 1
    26    12    51 1
    27    12    52 1
    28    13    15 1
    29    13    53 1
    30    13    54 1
    31    14    15 1
    32    14    16 1
    33    14    55 1
    34    14    56 1
    35    15    57 1
    36    15    58 1
    37    16    26 1
    38    18    40 1
    39    19    22 1
    40    19    23 1
    41    19    39 1
    42    19    59 1
    43    21    60 1
    44    21    61 1
    45    22    37 1
    46    22    38 1
    47    23    24 1
    48    23    25 1
    49    26    27 ar
    50    26    31 ar
    51    27    28 ar
    52    27    62 1
    53    28    29 ar
    54    28    63 1
    55    29    30 ar
    56    29    64 1
    57    30    31 ar
    58    30    36 1
    59    31    32 1
    60    32    33 2
    61    32    34 1
    62    34    35 1
    63    35    65 1
    64    35    66 1
    65    35    67 1
    66    36    68 1
    67    40    41 1
    68    40    42 1
    69    40    43 1
    70    41    69 1
    71    41    70 1
    72    41    71 1
    73    42    72 1
    74    42    73 1
    75    42    74 1
    76    43    75 1
    77    43    76 1
    78    43    77 1
@<TRIPOS>SUBSTRUCTURE
     1 941         1 TEMP              0 ****  ****    0 ROOT
