@<TRIPOS>MOLECULE
molecule
   44    45     1     0     0
SMALL
bcc


@<TRIPOS>ATOM
      1 CAW          0.0000     0.0000     0.0000 c3         1 942      -0.090100
      2 CAX          1.5300     0.0000     0.0000 c3         1 942      -0.083400
      3 CAV          2.0390     0.0000     1.4430 c3         1 942      -0.106400
      4 CAU          3.5690     0.0000     1.4440 c3         1 942       0.086000
      5 NAQ          4.0560     0.0010     2.8260 n          1 942      -0.371000
      6 CAR          4.2830    -1.1920     3.4720 cc         1 942       0.044600
      7 NAS          4.0560    -2.3850     2.8280 nz         1 942      -0.663400
      8 CAP          4.2840     1.1690     3.4540 c          1 942       0.813500
      9 OAO          4.0820     2.2130     2.8640 o          1 942      -0.582500
     10 NAG          4.7320     1.2030     4.7220 ns         1 942      -0.549500
     11 CAH          4.9660     0.0620     5.4010 c          1 942       0.683700
     12 OAA          5.3710     0.1060     6.5500 o          1 942      -0.527500
     13 CAI          4.7430    -1.1770     4.7720 cd         1 942      -0.010600
     14 NAJ          4.9850    -2.3840     5.4620 n          1 942      -0.418000
     15 CAB          4.1900    -2.7230     6.6450 c3         1 942       0.100300
     16 OAT          6.2090    -4.2260     5.6700 o          1 942      -0.506100
     17 CAE          7.5550    -1.3370     2.2120 ca         1 942      -0.132000
     18 CAD          8.0660    -2.3730     1.4520 ca         1 942      -0.085000
     19 CAL          7.8910    -3.6850     1.8530 ca         1 942      -0.132000
     20 CAM          7.2040    -3.9690     3.0140 ca         1 942      -0.108000
     21 CAK          5.9470    -3.2240     5.0330 c          1 942       0.645700
     22 CAN          6.6850    -2.9280     3.7860 ca         1 942      -0.224600
     23 CAF          6.8700    -1.6060     3.3790 ca         1 942      -0.108000
     24 HAW1        -0.3610     0.8710     0.5330 hc         1 942       0.047367
     25 HAW2        -0.3610     0.0260    -1.0210 hc         1 942       0.047367
     26 HAW3        -0.3610    -0.8970     0.4880 hc         1 942       0.047367
     27 HAX1         1.8910     0.8850    -0.5110 hc         1 942       0.050200
     28 HAX2         1.8910    -0.8850    -0.5110 hc         1 942       0.050200
     29 HAV1         1.6780     0.8840     1.9540 hc         1 942       0.054700
     30 HAV2         1.6780    -0.8850     1.9540 hc         1 942       0.054700
     31 HAU1         3.9310    -0.8840     0.9340 h1         1 942       0.077700
     32 HAU2         3.9300     0.8850     0.9340 h1         1 942       0.077700
     33 HAS1         4.5880    -2.4140     1.9800 hn         1 942       0.473467
     34 HAS2         3.0820    -2.4690     2.6140 hn         1 942       0.473467
     35 HAG          4.8940     2.0850     5.1660 hn         1 942       0.397500
     36 HAB1         3.8000    -3.7280     6.5420 h1         1 942       0.070033
     37 HAB2         3.3670    -2.0250     6.7390 h1         1 942       0.070033
     38 HAB3         4.8140    -2.6660     7.5280 h1         1 942       0.070033
     39 HAL          8.2940    -4.4920     1.2530 ha         1 942       0.160000
     40 HAM          7.0670    -4.9970     3.3270 ha         1 942       0.154000
     41 HAD          8.6050    -2.1560     0.5370 ha         1 942       0.160000
     42 HAF          6.4700    -0.7940     3.9730 ha         1 942       0.154000
     43 HAE          7.6970    -0.3110     1.8940 ha         1 942       0.160000
     44 HAS3         4.3550    -3.1410     3.4120 hn         1 942       0.473467
@<TRIPOS>BOND
     1     1     2 1
     2     2     3 1
     3     3     4 1
     4     4     5 1
     5     5     6 1
     6     5     8 1
     7     6     7 1
     8     6    13 2
     9     8     9 2
    10     8    10 1
    11    10    11 1
    12    11    12 2
    13    11    13 1
    14    13    14 1
    15    14    15 1
    16    14    21 1
    17    19    20 ar
    18    19    18 ar
    19    20    22 ar
    20    22    23 ar
    21    22    21 1
    22    23    17 ar
    23    17    18 ar
    24    21    16 2
    25     1    24 1
    26     1    25 1
    27     1    26 1
    28     2    27 1
    29     2    28 1
    30     3    29 1
    31     3    30 1
    32     4    31 1
    33     4    32 1
    34     7    33 1
    35     7    34 1
    36    10    35 1
    37    15    36 1
    38    15    37 1
    39    15    38 1
    40    19    39 1
    41    20    40 1
    42    18    41 1
    43    23    42 1
    44    17    43 1
    45    44     7 1
@<TRIPOS>SUBSTRUCTURE
     1 942         1 TEMP              0 ****  ****    0 ROOT
