@<TRIPOS>MOLECULE
molecule
   30    30     1     0     0
SMALL
bcc


@<TRIPOS>ATOM
      1 C5           0.0000     0.0000     0.0000 c3         1 945      -0.063700
      2 C4           1.5300     0.0000     0.0000 c3         1 945       0.152100
      3 C2           1.5300    -1.2500     2.1630 c3         1 945       0.129100
      4 C6          -0.5100    -1.2500     0.7210 c3         1 945       0.191100
      5 C1          -0.0000    -1.2500     2.1630 c3         1 945       0.111100
      6 C3           2.0400     0.0000     1.4430 c3         1 945       0.117100
      7 C7          -0.5100    -0.0000    -1.4430 c3         1 945       0.143400
      8 O7          -0.1320     1.2210    -2.0810 oh         1 945      -0.607800
      9 O6          -0.0340    -2.4160     0.0460 os         1 945      -0.603500
     10 O2           2.0060    -1.2500     3.5110 oh         1 945      -0.612800
     11 O3           3.4690     0.0000     1.4430 oh         1 945      -0.618800
     12 O4           2.0060     1.1670    -0.6730 oh         1 945      -0.592800
     13 S13         -1.0150    -3.5790     0.0540 s6         1 945       1.557300
     14 O14         -2.1110    -3.2510    -0.9510 o          1 945      -0.735200
     15 O15         -0.3140    -4.6990    -0.4700 o          1 945      -0.735200
     16 O16         -1.6300    -3.5780     1.3340 o          1 945      -0.735200
     17 H1          -0.3590     0.8830     0.5150 hc         1 945       0.079700
     18 H2           1.8890    -0.8870    -0.5080 h1         1 945       0.063700
     19 H3           1.8890    -2.1330     1.6490 h1         1 945       0.068700
     20 H4          -1.5930    -1.2460     0.7230 h1         1 945       0.085700
     21 H5          -0.3590    -2.1370     2.6700 h1         1 945       0.085700
     22 H7           1.6740     0.8830     1.9530 h1         1 945       0.062700
     23 H8          -1.5900    -0.0890    -1.4440 h1         1 945       0.042200
     24 H9          -0.0780    -0.8370    -1.9780 h1         1 945       0.042200
     25 H10         -0.6910     1.3730    -2.8260 ho         1 945       0.383000
     26 H11          2.4590    -2.0590     3.6840 ho         1 945       0.397000
     27 H12          3.7830     0.7450     1.9280 ho         1 945       0.399000
     28 H13          2.8170     0.9680    -1.1130 ho         1 945       0.394000
     29 O1          -0.4760    -0.0830     2.8370 oh         1 945      -0.606800
     30 H14         -1.0180    -0.3400     3.5650 ho         1 945       0.404000
@<TRIPOS>BOND
     1    11     6 1
     2    12     2 1
     3     6     2 1
     4     6     3 1
     5     2     1 1
     6    10     3 1
     7     3     5 1
     8     1     7 1
     9     1     4 1
    10     7     8 1
    11     9     4 1
    12     9    13 1
    13    16    13 1
    14     5     4 1
    15    13    15 1
    16    13    14 1
    17     1    17 1
    18     2    18 1
    19     3    19 1
    20     4    20 1
    21     5    21 1
    22     6    22 1
    23     7    23 1
    24     7    24 1
    25     8    25 1
    26    10    26 1
    27    11    27 1
    28    12    28 1
    29     5    29 1
    30    29    30 1
@<TRIPOS>SUBSTRUCTURE
     1 945         1 TEMP              0 ****  ****    0 ROOT
