@<TRIPOS>MOLECULE
molecule
   42    44     1     0     0
SMALL
bcc


@<TRIPOS>ATOM
      1 C1           0.0000     0.0000     0.0000 ca         1 946       0.087100
      2 O1          -0.6820     0.0010    -1.1780 oh         1 946      -0.510100
      3 C2           1.3920     0.0000     0.0000 ca         1 946       0.095100
      4 O2           2.0730     0.0020    -1.1770 oh         1 946      -0.511100
      5 C3           2.0810     0.0000     1.2010 ca         1 946      -0.157000
      6 O3          -0.0290    -0.7760     4.6660 oh         1 946      -0.585800
      7 C4           1.3860    -0.0020     2.3970 ca         1 946      -0.094000
      8 C5           0.0040    -0.0010     2.3970 ca         1 946      -0.115300
      9 C6          -0.7470    -0.0030     3.7040 c3         1 946       0.199400
     10 C7          -0.8940     1.4340     4.2090 c3         1 946       0.157800
     11 C8          -1.7870     2.7990     5.9980 c3         1 946       0.203100
     12 C9          -2.5410     2.7570     7.3020 ca         1 946      -0.079300
     13 C10         -4.6060     2.8100     8.5080 ca         1 946      -0.035000
     14 C11         -6.0080     2.9000     8.5390 ca         1 946      -0.117000
     15 C12         -6.6580     2.8600     9.7340 ca         1 946      -0.126000
     16 C13         -5.9560     2.7310    10.9300 ca         1 946      -0.126000
     17 C14         -4.5970     2.6410    10.9380 ca         1 946      -0.115000
     18 C15         -3.8910     2.6790     9.7240 ca         1 946      -0.033000
     19 C16         -2.4880     2.5940     9.6930 ca         1 946      -0.118000
     20 C17         -1.8380     2.6330     8.4980 ca         1 946      -0.103000
     21 C18         -0.6910     0.0040     1.2010 ca         1 946      -0.151000
     22 C19         -3.8990     2.8480     7.2940 ca         1 946      -0.117000
     23 N1          -1.6270     1.4330     5.4810 n7         1 946      -0.805200
     24 H1          -1.0740     0.8470    -1.3130 ho         1 946       0.421000
     25 H2           2.4340    -0.8560    -1.3320 ho         1 946       0.423000
     26 H3           3.1640    -0.0000     1.2040 ha         1 946       0.144000
     27 H4          -0.4380    -1.6200     4.7610 ho         1 946       0.405000
     28 H5           1.9270    -0.0020     3.3360 ha         1 946       0.154000
     29 H6          -1.7300    -0.4350     3.5540 h1         1 946       0.034700
     30 H7          -1.4390     2.0190     3.4790 h1         1 946       0.044200
     31 H8           0.0880     1.8660     4.3580 h1         1 946       0.044200
     32 H9          -0.8110     3.2410     6.1590 h1         1 946       0.037700
     33 H10         -2.3380     3.3940     5.2800 h1         1 946       0.037700
     34 H11         -6.5680     3.0010     7.6180 ha         1 946       0.131000
     35 H12         -7.7390     2.9300     9.7550 ha         1 946       0.128000
     36 H13         -6.4990     2.7020    11.8670 ha         1 946       0.128000
     37 H14         -4.0640     2.5420    11.8760 ha         1 946       0.133000
     38 H15         -1.9280     2.4970    10.6160 ha         1 946       0.134000
     39 H16         -0.7560     2.5670     8.4770 ha         1 946       0.137000
     40 H17         -1.7740     0.0040     1.2030 ha         1 946       0.138000
     41 H18         -4.4220     3.0600     6.3690 ha         1 946       0.129000
     42 H19         -2.5280     1.0190     5.3470 hn         1 946       0.351800
@<TRIPOS>BOND
     1    16    15 ar
     2    16    17 ar
     3    15    14 ar
     4    17    18 ar
     5    14    13 ar
     6    18    13 ar
     7    18    19 ar
     8    13    22 ar
     9    19    20 ar
    10    22    12 ar
    11    20    12 ar
    12    12    11 1
    13    11    23 1
    14    23    10 1
    15    10     9 1
    16     9     8 1
    17     9     6 1
    18     7     8 ar
    19     7     5 ar
    20     8    21 ar
    21     5     3 ar
    22    21     1 ar
    23     3     1 ar
    24     3     4 1
    25     1     2 1
    26     2    24 1
    27     4    25 1
    28     5    26 1
    29     6    27 1
    30     7    28 1
    31     9    29 1
    32    10    30 1
    33    10    31 1
    34    11    32 1
    35    11    33 1
    36    14    34 1
    37    15    35 1
    38    16    36 1
    39    17    37 1
    40    19    38 1
    41    20    39 1
    42    21    40 1
    43    22    41 1
    44    23    42 1
@<TRIPOS>SUBSTRUCTURE
     1 946         1 TEMP              0 ****  ****    0 ROOT
