@<TRIPOS>MOLECULE
946
   42    44     1     0     0
SMALL
bcc


@<TRIPOS>ATOM
      1 C1           0.0000     0.0000     0.0000 ca         1 946       0.095100
      2 O1          -0.6820     0.0010    -1.1780 oh         1 946      -0.488100
      3 C2           1.3920     0.0000     0.0000 ca         1 946       0.104100
      4 O2           2.0730     0.0020    -1.1770 oh         1 946      -0.490100
      5 C3           2.0810     0.0000     1.2010 ca         1 946      -0.137000
      6 O3          -0.0290    -0.7760     4.6660 oh         1 946      -0.569800
      7 C4           1.3860    -0.0020     2.3970 ca         1 946      -0.067000
      8 C5           0.0040    -0.0010     2.3970 ca         1 946      -0.128300
      9 C6          -0.7470    -0.0030     3.7040 c3         1 946       0.254400
     10 C7          -0.8940     1.4340     4.2090 c3         1 946       0.131800
     11 C8          -1.7870     2.7990     5.9980 c3         1 946       0.201100
     12 C9          -2.5410     2.7570     7.3020 ca         1 946      -0.090300
     13 C10         -4.6060     2.8100     8.5080 ca         1 946      -0.034000
     14 C11         -6.0080     2.9000     8.5390 ca         1 946      -0.089000
     15 C12         -6.6580     2.8600     9.7340 ca         1 946      -0.100000
     16 C13         -5.9560     2.7310    10.9300 ca         1 946      -0.101000
     17 C14         -4.5970     2.6410    10.9380 ca         1 946      -0.087000
     18 C15         -3.8910     2.6790     9.7240 ca         1 946      -0.034000
     19 C16         -2.4880     2.5940     9.6930 ca         1 946      -0.089000
     20 C17         -1.8380     2.6330     8.4980 ca         1 946      -0.077000
     21 C18         -0.6910     0.0040     1.2010 ca         1 946      -0.128000
     22 C19         -3.8990     2.8480     7.2940 ca         1 946      -0.089000
     23 N1          -1.6270     1.4330     5.4810 n7         1 946      -0.568200
     24 H1          -1.0740     0.8470    -1.3130 ho         1 946       0.403000
     25 H2           2.4340    -0.8560    -1.3320 ho         1 946       0.405000
     26 H3           3.1640    -0.0000     1.2040 ha         1 946       0.115000
     27 H4          -0.4380    -1.6200     4.7610 ho         1 946       0.390000
     28 H5           1.9270    -0.0020     3.3360 ha         1 946       0.124000
     29 H6          -1.7300    -0.4350     3.5540 h1         1 946      -0.000300
     30 H7          -1.4390     2.0190     3.4790 h1         1 946       0.016700
     31 H8           0.0880     1.8660     4.3580 h1         1 946       0.016700
     32 H9          -0.8110     3.2410     6.1590 h1         1 946       0.009200
     33 H10         -2.3380     3.3940     5.2800 h1         1 946       0.009200
     34 H11         -6.5680     3.0010     7.6180 ha         1 946       0.104000
     35 H12         -7.7390     2.9300     9.7550 ha         1 946       0.100000
     36 H13         -6.4990     2.7020    11.8670 ha         1 946       0.101000
     37 H14         -4.0640     2.5420    11.8760 ha         1 946       0.106000
     38 H15         -1.9280     2.4970    10.6160 ha         1 946       0.107000
     39 H16         -0.7560     2.5670     8.4770 ha         1 946       0.109000
     40 H17         -1.7740     0.0040     1.2030 ha         1 946       0.113000
     41 H18         -4.4220     3.0600     6.3690 ha         1 946       0.106000
     42 H19         -2.5280     1.0190     5.3470 hn         1 946       0.249800
@<TRIPOS>BOND
     1     1     2 1   
     2     1     3 ar  
     3     1    21 ar  
     4     2    24 1   
     5     3     4 1   
     6     3     5 ar  
     7     4    25 1   
     8     5     7 ar  
     9     5    26 1   
    10     6     9 1   
    11     6    27 1   
    12     7     8 ar  
    13     7    28 1   
    14     8     9 1   
    15     8    21 ar  
    16     9    10 1   
    17     9    29 1   
    18    10    23 1   
    19    10    30 1   
    20    10    31 1   
    21    11    12 1   
    22    11    23 1   
    23    11    32 1   
    24    11    33 1   
    25    12    20 ar  
    26    12    22 ar  
    27    13    14 ar  
    28    13    18 ar  
    29    13    22 ar  
    30    14    15 ar  
    31    14    34 1   
    32    15    16 ar  
    33    15    35 1   
    34    16    17 ar  
    35    16    36 1   
    36    17    18 ar  
    37    17    37 1   
    38    18    19 ar  
    39    19    20 ar  
    40    19    38 1   
    41    20    39 1   
    42    21    40 1   
    43    22    41 1   
    44    23    42 1   
@<TRIPOS>SUBSTRUCTURE
     1 946         1 TEMP              0 ****  ****    0 ROOT
