@<TRIPOS>MOLECULE
molecule
   43    45     1     0     0
SMALL
bcc


@<TRIPOS>ATOM
      1 C5           0.0000     0.0000     0.0000 c          1 947       0.789100
      2 C8          -4.4930     0.0170     1.5680 cc         1 947      -0.116300
      3 C9           1.8210     1.5350    -2.2340 ca         1 947      -0.317500
      4 C10          1.2650     3.9380    -3.4920 cp         1 947       0.023000
      5 C2          -2.0640     0.0070     1.1680 cd         1 947       0.584300
      6 C11          2.3520     3.8370    -2.6260 ca         1 947      -0.097300
      7 C13          2.6250     2.6370    -2.0010 ca         1 947      -0.031000
      8 C12         -4.1140     0.0190     0.2890 cc         1 947       0.436200
      9 C16          0.4630     2.8220    -3.7280 ca         1 947      -0.140000
     10 C18          0.7450     1.6270    -3.0970 ca         1 947      -0.005000
     11 C19          0.9670     5.2260    -4.1650 cp         1 947      -0.051000
     12 C21          3.2230     5.0390    -2.3660 c3         1 947      -0.045100
     13 C22          1.9360     5.8450    -4.9520 ca         1 947      -0.112500
     14 C23         -0.2870     5.8180    -4.0180 ca         1 947      -0.112500
     15 C24          2.5350     5.9590    -1.3550 c3         1 947      -0.088100
     16 C25          1.6510     7.0430    -5.5760 ca         1 947      -0.129500
     17 C26         -0.5590     7.0150    -4.6470 ca         1 947      -0.129500
     18 C27          0.4090     7.6290    -5.4220 ca         1 947      -0.122000
     19 N3           1.3480     0.0000     0.0000 ns         1 947      -0.661300
     20 N6          -0.6740     0.0000     1.1670 ns         1 947      -0.533400
     21 N7          -2.8060     0.0130     0.1040 nc         1 947      -0.680000
     22 O14          1.5950    -1.0110    -2.2380 o          1 947      -0.612800
     23 O15          3.5570     0.0380    -1.1000 o          1 947      -0.612800
     24 O17         -0.6070     0.0050    -1.0530 o          1 947      -0.552100
     25 S1           2.1770     0.0060    -1.4340 sy         1 947       1.426900
     26 S4          -3.0430     0.0070     2.5690 ss         1 947      -0.179300
     27 H1           3.4680     2.5580    -1.3260 ha         1 947       0.147000
     28 H2          -4.8210     0.0240    -0.5320 h4         1 947       0.061100
     29 H3          -0.3810     2.8940    -4.4020 ha         1 947       0.146000
     30 H4           0.1210     0.7600    -3.2780 ha         1 947       0.174000
     31 H5           3.3830     5.5770    -3.2930 hc         1 947       0.053700
     32 H6           4.1770     4.7140    -1.9670 hc         1 947       0.053700
     33 H7           2.9100     5.3870    -5.0730 ha         1 947       0.137500
     34 H8          -1.0460     5.3380    -3.4120 ha         1 947       0.137500
     35 H9           1.5060     5.6450    -1.2240 hc         1 947       0.037700
     36 H10          2.5580     6.9780    -1.7210 hc         1 947       0.037700
     37 H11          3.0540     5.9040    -0.4060 hc         1 947       0.037700
     38 H12          2.4050     7.5270    -6.1850 ha         1 947       0.132000
     39 H13         -1.5320     7.4770    -4.5320 ha         1 947       0.132000
     40 H14          0.1900     8.5690    -5.9140 ha         1 947       0.131000
     41 H15          1.8480    -0.0310     0.8660 hn         1 947       0.337500
     42 H16         -0.1740    -0.0080     2.0340 hn         1 947       0.335500
     43 Br2         -6.2760     0.0310     2.1980 br         1 947      -0.022100
@<TRIPOS>BOND
     1    17    14 ar
     2    17    18 ar
     3    14    11 ar
     4     9    10 ar
     5     9     4 ar
     6    18    16 ar
     7    10     3 ar
     8    11     4 1
     9    11    13 ar
    10    21     5 2
    11    21     8 1
    12    20     5 1
    13    20     1 1
    14     4     6 ar
    15    19     1 1
    16    19    25 1
    17    16    13 ar
    18    23    25 2
    19     5    26 1
    20     8     2 2
    21     3    25 1
    22     3     7 ar
    23     1    24 2
    24    25    22 2
    25     6     7 ar
    26     6    12 1
    27     2    26 1
    28     2    43 1
    29    12    15 1
    30     7    27 1
    31     8    28 1
    32     9    29 1
    33    10    30 1
    34    12    31 1
    35    12    32 1
    36    13    33 1
    37    14    34 1
    38    15    35 1
    39    15    36 1
    40    15    37 1
    41    16    38 1
    42    17    39 1
    43    18    40 1
    44    19    41 1
    45    20    42 1
@<TRIPOS>SUBSTRUCTURE
     1 947         1 TEMP              0 ****  ****    0 ROOT
