@<TRIPOS>MOLECULE
molecule
   25    26     1     0     0
SMALL
bcc


@<TRIPOS>ATOM
      1 C1           0.0000     0.0000     0.0000 cx         1 948       0.037500
      2 C2           1.5210     0.0000     0.0000 c3         1 948       0.176100
      3 C3           2.0950     0.0000     1.4020 c3         1 948       0.126100
      4 C4           1.4290     1.0100     2.3100 c3         1 948       0.159100
      5 C5          -0.0430     0.7270     2.5260 c3         1 948      -0.025700
      6 C6          -0.6880     1.9440     3.1910 c3         1 948       0.148400
      7 C7          -0.7760     0.4270     1.2350 cx         1 948       0.066500
      8 N8          -0.6510     1.3210     0.0870 n5         1 948      -0.736200
      9 O2           1.9860    -1.1620    -0.6910 oh         1 948      -0.605800
     10 O3           3.4900     0.2960     1.3280 oh         1 948      -0.608800
     11 O4           2.0920     0.9970     3.5760 oh         1 948      -0.586800
     12 O6          -0.1350     2.1250     4.4950 oh         1 948      -0.594800
     13 H1          -0.5110    -0.6960    -0.6540 h1         1 948       0.087700
     14 H2           1.8690     0.8850    -0.5190 h1         1 948       0.063700
     15 H3           1.9660    -0.9870     1.8290 h1         1 948       0.057700
     16 H4           1.5310     1.9940     1.8680 h1         1 948       0.051700
     17 H5          -0.1380    -0.1280     3.1850 hc         1 948       0.084700
     18 H6          -0.4950     2.8270     2.5920 h1         1 948       0.026200
     19 H7          -1.7570     1.7880     3.2700 h1         1 948       0.026200
     20 H8          -1.7490    -0.0410     1.3230 h1         1 948       0.074700
     21 H9          -1.5020     1.3090    -0.4400 hn         1 948       0.342800
     22 H11          2.2730    -0.9190    -1.5560 ho         1 948       0.408000
     23 H12          3.9870    -0.4700     1.5630 ho         1 948       0.414000
     24 H13          2.7630     1.6590     3.5860 ho         1 948       0.411000
     25 H14         -0.7060     2.6750     5.0060 ho         1 948       0.397000
@<TRIPOS>BOND
     1     9     2 1
     2     2     1 1
     3     2     3 1
     4     1     8 1
     5     1     7 1
     6     8     7 1
     7    10     3 1
     8     3     4 1
     9     7     5 1
    10     4     5 1
    11     4    11 1
    12     5     6 1
    13    12     6 1
    14     1    13 1
    15     2    14 1
    16     3    15 1
    17     4    16 1
    18     5    17 1
    19     6    18 1
    20     6    19 1
    21     7    20 1
    22     8    21 1
    23     9    22 1
    24    10    23 1
    25    11    24 1
    26    12    25 1
@<TRIPOS>SUBSTRUCTURE
     1 948         1 TEMP              0 ****  ****    0 ROOT
