@<TRIPOS>MOLECULE
949
   42    44     1     0     0
SMALL
bcc


@<TRIPOS>ATOM
      1 C15          0.0000     0.0000     0.0000 ca         1 949       0.013000
      2 C16          1.3840     0.0000     0.0000 ca         1 949      -0.226500
      3 C13          0.0060     0.0110     2.4040 ca         1 949       0.062200
      4 C17          2.0830     0.0000     1.1940 ca         1 949       0.013000
      5 C11         -2.2480     0.5900     5.2700 c          1 949       0.606300
      6 C10         -1.3500    -0.5140     5.7880 c3         1 949       0.037800
      7 C2          -1.5960     2.9770     2.6680 ca         1 949      -0.143000
      8 C1          -2.1300     3.9170     1.8060 ca         1 949       0.096900
      9 C6          -3.4150     3.7580     1.3140 ca         1 949      -0.126000
     10 C5          -4.1700     2.6610     1.6810 ca         1 949      -0.062000
     11 C4          -3.6480     1.7150     2.5400 ca         1 949      -0.092000
     12 C3          -2.3530     1.8660     3.0360 ca         1 949       0.007200
     13 C14         -0.6930     0.0050     1.1930 ca         1 949      -0.085500
     14 C8          -0.7270     0.0170     3.6810 ce         1 949       0.182900
     15 C7          -1.7890     0.8550     3.9600 cf         1 949      -0.260400
     16 C18          1.4040    -0.0000     2.3950 ca         1 949      -0.085500
     17 O12         -3.1670     1.1290     5.8540 o          1 949      -0.499100
     18 O9          -0.4420    -0.7930     4.7160 os         1 949      -0.257900
     19 S19          2.2600    -0.0010    -1.5280 sy         1 949       0.937200
     20 O21          1.3750    -0.5460    -2.4970 o          1 949      -0.494800
     21 N22          2.5040     1.5800    -1.9550 nz         1 949      -0.130500
     22 O20          3.5440    -0.5450    -1.2550 o          1 949      -0.494800
     23 H1          -0.5400    -0.0030    -0.9390 ha         1 949       0.128500
     24 H2           3.1660    -0.0040     1.1860 ha         1 949       0.128500
     25 H3          -0.5900     3.1010     3.0510 ha         1 949       0.117000
     26 H4          -3.8300     4.4970     0.6390 ha         1 949       0.126000
     27 H5          -5.1750     2.5430     1.2950 ha         1 949       0.118000
     28 H6          -4.2410     0.8550     2.8250 ha         1 949       0.121000
     29 H7          -1.7770     0.0050     1.1910 ha         1 949       0.143000
     30 H8           1.9530     0.0020     3.3290 ha         1 949       0.143000
     31 H9          -0.0870     0.8970     6.8040 hc         1 949       0.023533
     32 H10          0.1540    -0.7840     7.2990 hc         1 949       0.023533
     33 H11         -1.2760     0.1020     7.8460 hc         1 949       0.023533
     34 H12         -2.7630    -2.0450     5.2570 hc         1 949       0.023533
     35 H13         -2.8400    -1.5400     6.9500 hc         1 949       0.023533
     36 H14         -1.5140    -2.5700     6.3940 hc         1 949       0.023533
     37 H15          3.0310     2.0410    -1.2400 hn         1 949       0.314133
     38 H16          1.6200     2.0360    -2.0630 hn         1 949       0.314133
     39 C24         -0.5840    -0.0400     7.0240 c3         1 949       0.011400
     40 H223         3.0080     1.6190    -2.8180 hn         1 949       0.314133
     41 C23         -2.1770    -1.7580     6.1220 c3         1 949       0.011400
     42 F25         -1.3960     4.9920     1.4430 f          1 949      -0.129900
@<TRIPOS>BOND
     1     1     2 ar  
     2     1    13 ar  
     3     1    23 1   
     4     2     4 ar  
     5     2    19 1   
     6     3    13 ar  
     7     3    14 1   
     8     3    16 ar  
     9     4    16 ar  
    10     4    24 1   
    11     5     6 1   
    12     5    15 1   
    13     5    17 2   
    14     6    18 1   
    15     6    39 1   
    16     6    41 1   
    17     7     8 ar  
    18     7    12 ar  
    19     7    25 1   
    20     8     9 ar  
    21     8    42 1   
    22     9    10 ar  
    23     9    26 1   
    24    10    11 ar  
    25    10    27 1   
    26    11    12 ar  
    27    11    28 1   
    28    12    15 1   
    29    13    29 1   
    30    14    15 2   
    31    14    18 1   
    32    16    30 1   
    33    19    20 2   
    34    19    21 1   
    35    19    22 2   
    36    21    37 1   
    37    21    38 1   
    38    21    40 1   
    39    31    39 1   
    40    32    39 1   
    41    33    39 1   
    42    34    41 1   
    43    35    41 1   
    44    36    41 1   
@<TRIPOS>SUBSTRUCTURE
     1 949         1 TEMP              0 ****  ****    0 ROOT
