@<TRIPOS>MOLECULE
molecule
   42    44     1     0     0
SMALL
bcc


@<TRIPOS>ATOM
      1 C15          0.0000     0.0000     0.0000 ca         1 949      -0.029500
      2 C16          1.3840     0.0000     0.0000 ca         1 949      -0.338500
      3 C13          0.0060     0.0110     2.4040 ca         1 949       0.059200
      4 C17          2.0830     0.0000     1.1940 ca         1 949      -0.029500
      5 C11         -2.2480     0.5900     5.2700 c          1 949       0.566300
      6 C10         -1.3500    -0.5140     5.7880 c3         1 949       0.022800
      7 C2          -1.5960     2.9770     2.6680 ca         1 949      -0.168000
      8 C1          -2.1300     3.9170     1.8060 ca         1 949       0.123900
      9 C6          -3.4150     3.7580     1.3140 ca         1 949      -0.159000
     10 C5          -4.1700     2.6610     1.6810 ca         1 949      -0.096000
     11 C4          -3.6480     1.7150     2.5400 ca         1 949      -0.120000
     12 C3          -2.3530     1.8660     3.0360 ca         1 949      -0.006800
     13 C14         -0.6930     0.0050     1.1930 ca         1 949      -0.102000
     14 C8          -0.7270     0.0170     3.6810 ce         1 949       0.167900
     15 C7          -1.7890     0.8550     3.9600 cf         1 949      -0.250400
     16 C18          1.4040    -0.0000     2.3950 ca         1 949      -0.102000
     17 O12         -3.1670     1.1290     5.8540 o          1 949      -0.468100
     18 O9          -0.4420    -0.7930     4.7160 os         1 949      -0.273900
     19 S19          2.2600    -0.0010    -1.5280 sy         1 949       1.228200
     20 O21          1.3750    -0.5460    -2.4970 o          1 949      -0.516800
     21 N22          2.5040     1.5800    -1.9550 nz         1 949      -0.806500
     22 O20          3.5440    -0.5450    -1.2550 o          1 949      -0.516800
     23 H1          -0.5400    -0.0030    -0.9390 ha         1 949       0.160500
     24 H2           3.1660    -0.0040     1.1860 ha         1 949       0.160500
     25 H3          -0.5900     3.1010     3.0510 ha         1 949       0.142000
     26 H4          -3.8300     4.4970     0.6390 ha         1 949       0.154000
     27 H5          -5.1750     2.5430     1.2950 ha         1 949       0.151000
     28 H6          -4.2410     0.8550     2.8250 ha         1 949       0.150000
     29 H7          -1.7770     0.0050     1.1910 ha         1 949       0.178000
     30 H8           1.9530     0.0020     3.3290 ha         1 949       0.178000
     31 H9          -0.0870     0.8970     6.8040 hc         1 949       0.061533
     32 H10          0.1540    -0.7840     7.2990 hc         1 949       0.061533
     33 H11         -1.2760     0.1020     7.8460 hc         1 949       0.061533
     34 H12         -2.7630    -2.0450     5.2570 hc         1 949       0.061533
     35 H13         -2.8400    -1.5400     6.9500 hc         1 949       0.061533
     36 H14         -1.5140    -2.5700     6.3940 hc         1 949       0.061533
     37 H15          3.0310     2.0410    -1.2400 hn         1 949       0.492800
     38 H16          1.6200     2.0360    -2.0630 hn         1 949       0.492800
     39 C24         -0.5840    -0.0400     7.0240 c3         1 949      -0.082600
     40 H223         3.0080     1.6190    -2.8180 hn         1 949       0.492800
     41 C23         -2.1770    -1.7580     6.1220 c3         1 949      -0.082600
     42 F25         -1.3960     4.9920     1.4430 f          1 949      -0.142900
@<TRIPOS>BOND
     1    10     9 ar
     2    10    11 ar
     3     9     8 ar
     4    17     5 2
     5    11    12 ar
     6     8    42 1
     7     8     7 ar
     8    12     7 ar
     9    12    15 1
    10     5    15 1
    11     5     6 1
    12    41     6 1
    13    15    14 2
    14     6    39 1
    15     6    18 1
    16    14    18 1
    17    14     3 1
    18     3    13 ar
    19     3    16 ar
    20    13     1 ar
    21    16     4 ar
    22     1     2 ar
    23     4     2 ar
    24     2    19 1
    25    21    19 1
    26    19    20 2
    27    19    22 2
    28     1    23 1
    29     4    24 1
    30     7    25 1
    31     9    26 1
    32    10    27 1
    33    11    28 1
    34    13    29 1
    35    16    30 1
    36    39    31 1
    37    39    32 1
    38    39    33 1
    39    41    34 1
    40    41    35 1
    41    41    36 1
    42    21    37 1
    43    21    38 1
    44    40    21 1
@<TRIPOS>SUBSTRUCTURE
     1 949         1 TEMP              0 ****  ****    0 ROOT
