@<TRIPOS>MOLECULE
94A
   53    55     1     0     0
SMALL
bcc


@<TRIPOS>ATOM
      1 O3           0.0000     0.0000     0.0000 o          1 94A      -0.650000
      2 C9           1.2150     0.0000     0.0000 c          1 94A       0.684100
      3 N2           1.8890     0.0000     1.1680 ns         1 94A      -0.170900
      4 C10          1.1560     0.0000     2.4360 c3         1 94A       0.028700
      5 C11          2.0320    -0.6100     3.5320 c3         1 94A      -0.014600
      6 C12          0.7920     1.4370     2.8150 c3         1 94A      -0.014600
      7 O2           1.8880    -0.0060    -1.1660 os         1 94A      -0.410900
      8 C1           1.0980    -0.0110    -2.3830 c3         1 94A       0.202800
      9 C3           0.8460     1.4040    -2.8320 cc         1 94A       0.252600
     10 N5           0.4930     2.4630    -2.1090 nc         1 94A      -0.278000
     11 N6           0.3870     3.4810    -2.8940 nd         1 94A      -0.392800
     12 N1           0.6540     3.1380    -4.1090 na         1 94A       0.643400
     13 C2           0.9490     1.8270    -4.1160 cd         1 94A      -0.436900
     14 C5           1.3260     0.9400    -5.2720 c3         1 94A       0.274100
     15 C8           0.4110     1.2310    -6.4630 c3         1 94A      -0.056100
     16 O1           2.6860     1.1790    -5.6400 oh         1 94A      -0.582800
     17 C7           1.1580    -0.5210    -4.8350 c3         1 94A      -0.051400
     18 C6           1.8660    -0.7390    -3.4950 c3         1 94A      -0.038400
     19 C4           0.6380     4.0220    -5.2780 c3         1 94A       0.008600
     20 C19          2.0140     4.5980    -5.4910 ca         1 94A      -0.186300
     21 C20          2.9230     3.9350    -6.2940 ca         1 94A      -0.031000
     22 C21          4.1850     4.4620    -6.4890 ca         1 94A      -0.179000
     23 C22          4.5390     5.6570    -5.8810 ca         1 94A       0.166100
     24 O25          5.7810     6.1770    -6.0730 os         1 94A      -0.307900
     25 C25          6.0760     7.4100    -5.4150 c3         1 94A       0.243700
     26 C23          3.6260     6.3210    -5.0760 ca         1 94A      -0.179000
     27 C24          2.3630     5.7930    -4.8870 ca         1 94A      -0.031000
     28 H1           2.8890    -0.0140     1.1680 hn         1 94A       0.173500
     29 H2           0.2500    -0.5860     2.3300 h1         1 94A       0.054700
     30 H3           1.4630    -0.6820     4.4510 hc         1 94A       0.011533
     31 H4           2.9000     0.0190     3.6920 hc         1 94A       0.011533
     32 H5           2.3540    -1.5990     3.2280 hc         1 94A       0.011533
     33 H6           0.4940     1.4720     3.8560 hc         1 94A       0.011533
     34 H7           1.6510     2.0790     2.6630 hc         1 94A       0.011533
     35 H8          -0.0270     1.7780     2.1930 hc         1 94A       0.011533
     36 H9           0.1520    -0.5100    -2.2080 h1         1 94A       0.050700
     37 H10         -0.5220     1.6510    -6.1070 hc         1 94A       0.021367
     38 H11          0.2120     0.3100    -6.9990 hc         1 94A       0.021367
     39 H12          0.8950     1.9370    -7.1270 hc         1 94A       0.021367
     40 H13          2.9990     0.4650    -6.1710 ho         1 94A       0.397000
     41 H14          0.1040    -0.7440    -4.7250 hc         1 94A       0.026700
     42 H15          1.5940    -1.1720    -5.5820 hc         1 94A       0.026700
     43 H16          2.8550    -0.3040    -3.5610 hc         1 94A       0.035200
     44 H17          1.8510    -1.8000    -3.2750 hc         1 94A       0.035200
     45 H18         -0.0690     4.8260    -5.1120 h1         1 94A       0.052700
     46 H19          0.3430     3.4570    -6.1540 h1         1 94A       0.052700
     47 H20          2.6460     3.0020    -6.7690 ha         1 94A       0.118000
     48 H21          4.8970     3.9420    -7.1180 ha         1 94A       0.120500
     49 H22          5.9780     7.2810    -4.3440 h1         1 94A      -0.001633
     50 H23          5.3850     8.1740    -5.7510 h1         1 94A      -0.001633
     51 H24          7.0900     7.7110    -5.6500 h1         1 94A      -0.001633
     52 H25          3.8990     7.2550    -4.6010 ha         1 94A       0.120500
     53 H26          1.6480     6.3100    -4.2580 ha         1 94A       0.118000
@<TRIPOS>BOND
     1     1     2 2   
     2     2     3 1   
     3     2     7 1   
     4     3     4 1   
     5     3    28 1   
     6     4     5 1   
     7     4     6 1   
     8     4    29 1   
     9     5    30 1   
    10     5    31 1   
    11     5    32 1   
    12     6    33 1   
    13     6    34 1   
    14     6    35 1   
    15     7     8 1   
    16     8     9 1   
    17     8    18 1   
    18     8    36 1   
    19     9    10 1   
    20     9    13 2   
    21    10    11 2   
    22    11    12 1   
    23    12    13 1   
    24    12    19 1   
    25    13    14 1   
    26    14    15 1   
    27    14    16 1   
    28    14    17 1   
    29    15    37 1   
    30    15    38 1   
    31    15    39 1   
    32    16    40 1   
    33    17    18 1   
    34    17    41 1   
    35    17    42 1   
    36    18    43 1   
    37    18    44 1   
    38    19    20 1   
    39    19    45 1   
    40    19    46 1   
    41    20    21 ar  
    42    20    27 ar  
    43    21    22 ar  
    44    21    47 1   
    45    22    23 ar  
    46    22    48 1   
    47    23    24 1   
    48    23    26 ar  
    49    24    25 1   
    50    25    49 1   
    51    25    50 1   
    52    25    51 1   
    53    26    27 ar  
    54    26    52 1   
    55    27    53 1   
@<TRIPOS>SUBSTRUCTURE
     1 94A         1 TEMP              0 ****  ****    0 ROOT
