@<TRIPOS>MOLECULE
94C
   48    51     1     0     0
SMALL
bcc


@<TRIPOS>ATOM
      1 C25          0.0000     0.0000     0.0000 ca         1 94C      -0.112000
      2 C26          1.3830     0.0000     0.0000 ca         1 94C      -0.064000
      3 C24         -0.6940    -0.0010     1.1940 ca         1 94C      -0.049000
      4 C27          2.0810     0.0000     1.1930 ca         1 94C      -0.132000
      5 C19         -1.7680    -1.2530     5.4670 ca         1 94C      -0.066000
      6 C5          -2.7560     2.2820     7.2740 ca         1 94C       0.637900
      7 C18         -2.1140    -0.0530     6.0990 ca         1 94C      -0.229600
      8 C23          0.0020    -0.0060     2.4010 cp         1 94C      -0.084000
      9 C22         -0.7370    -0.0080     3.6870 cp         1 94C      -0.037000
     10 C3          -1.7620     1.1860     5.5080 ca         1 94C       0.368600
     11 C28          1.3980    -0.0010     2.3960 ca         1 94C       0.132900
     12 C2          -1.0680     1.1960     4.2900 ca         1 94C       0.089600
     13 C20         -1.0890    -1.2270     4.2860 ca         1 94C      -0.014600
     14 C7          -2.8150    -0.0300     7.3280 ca         1 94C       0.541200
     15 C14         -5.1150    -4.0070    13.3400 c3         1 94C       0.020900
     16 C13         -4.1570    -3.5630    12.2340 c3         1 94C      -0.101400
     17 C12         -4.9310    -3.3240    10.9630 c          1 94C       0.591100
     18 C9          -4.6480    -1.2980     8.0660 c3         1 94C       0.134300
     19 C17         -2.5430    -1.3240     9.2680 c3         1 94C       0.134300
     20 C10         -5.0260    -2.6860     8.5970 c3         1 94C       0.050500
     21 C16         -2.8330    -2.7120     9.8480 c3         1 94C       0.050500
     22 N4          -2.1060     2.3210     6.1360 nb         1 94C      -0.590000
     23 N6          -3.1060     1.1480     7.8630 nb         1 94C      -0.654000
     24 N8          -3.1860    -1.2010     7.9540 nh         1 94C      -0.515300
     25 N11         -4.2890    -2.9230     9.8480 n          1 94C      -0.166800
     26 O15         -6.1310    -3.4940    10.9440 o          1 94C      -0.643100
     27 F29          2.0790    -0.0000     3.5620 f          1 94C      -0.124900
     28 F1          -0.7220     2.3670     3.7120 f          1 94C      -0.104900
     29 Cl          -0.6630    -2.7190     3.5080 cl         1 94C       0.005600
     30 H1          -0.5400     0.0020    -0.9390 ha         1 94C       0.110000
     31 H2           1.9220     0.0010    -0.9400 ha         1 94C       0.107000
     32 H3          -1.7770    -0.0010     1.1920 ha         1 94C       0.113000
     33 H4           3.1640     0.0020     1.1860 ha         1 94C       0.122000
     34 H5          -2.0340    -2.2010     5.9190 ha         1 94C       0.140000
     35 H6          -3.0180     3.2170     7.7530 h5         1 94C       0.003100
     36 H7          -5.6100    -4.9230    13.0420 hc         1 94C       0.009700
     37 H8          -4.5580    -4.1780    14.2530 hc         1 94C       0.009700
     38 H9          -5.8560    -3.2340    13.5080 hc         1 94C       0.009700
     39 H10         -3.6610    -2.6470    12.5320 hc         1 94C       0.026700
     40 H11         -3.4170    -4.3350    12.0650 hc         1 94C       0.026700
     41 H12         -5.0940    -1.1530     7.0900 h1         1 94C       0.028450
     42 H13         -5.0080    -0.5400     8.7500 h1         1 94C       0.028450
     43 H14         -2.9360    -0.5660     9.9340 h1         1 94C       0.028450
     44 H15         -1.4720    -1.1970     9.1590 h1         1 94C       0.028450
     45 H16         -4.7560    -3.4400     7.8680 h1         1 94C       0.035950
     46 H17         -6.0910    -2.7230     8.7910 h1         1 94C       0.035950
     47 H18         -2.4590    -2.7670    10.8640 h1         1 94C       0.035950
     48 H19         -2.3560    -3.4680     9.2370 h1         1 94C       0.035950
@<TRIPOS>BOND
     1     1     2 ar  
     2     1     3 ar  
     3     1    30 1   
     4     2     4 ar  
     5     2    31 1   
     6     3     8 ar  
     7     3    32 1   
     8     4    11 ar  
     9     4    33 1   
    10     5     7 ar  
    11     5    13 ar  
    12     5    34 1   
    13     6    22 ar  
    14     6    23 ar  
    15     6    35 1   
    16     7    10 ar  
    17     7    14 ar  
    18     8     9 1   
    19     8    11 ar  
    20     9    12 ar  
    21     9    13 ar  
    22    10    12 ar  
    23    10    22 ar  
    24    11    27 1   
    25    12    28 1   
    26    13    29 1   
    27    14    23 ar  
    28    14    24 1   
    29    15    16 1   
    30    15    36 1   
    31    15    37 1   
    32    15    38 1   
    33    16    17 1   
    34    16    39 1   
    35    16    40 1   
    36    17    25 1   
    37    17    26 2   
    38    18    20 1   
    39    18    24 1   
    40    18    41 1   
    41    18    42 1   
    42    19    21 1   
    43    19    24 1   
    44    19    43 1   
    45    19    44 1   
    46    20    25 1   
    47    20    45 1   
    48    20    46 1   
    49    21    25 1   
    50    21    47 1   
    51    21    48 1   
@<TRIPOS>SUBSTRUCTURE
     1 94C         1 TEMP              0 ****  ****    0 ROOT
