@<TRIPOS>MOLECULE
molecule
   28    29     1     0     0
SMALL
bcc


@<TRIPOS>ATOM
      1 C1           0.0000     0.0000     0.0000 c3         1 94E       0.079100
      2 C3          -0.0270    -1.0060     2.2990 c3         1 94E       0.114100
      3 C6           1.5380     0.0000     0.0000 c3         1 94E       0.119100
      4 C2          -0.5890    -1.0800     0.8790 c3         1 94E       0.157100
      5 C4           1.4950    -1.1690     2.2260 c3         1 94E       0.153100
      6 C5           2.0750     0.0000     1.4340 c3         1 94E      -0.106700
      7 C7           3.6000    -0.1200     1.4020 c3         1 94E       0.156400
      8 O6           1.8760     1.2920    -0.5680 os         1 94E      -0.536500
      9 O1          -0.3450     1.3230     0.4480 os         1 94E      -0.502500
     10 O7           4.1150    -0.0030     2.7290 oh         1 94E      -0.581800
     11 O4           2.0410    -1.1710     3.5470 oh         1 94E      -0.561800
     12 O3          -0.5850    -2.0530     3.0940 oh         1 94E      -0.601800
     13 O2          -2.0080    -0.9200     0.9290 oh         1 94E      -0.569800
     14 S14          0.6910     2.2130    -0.2600 s6         1 94E       1.734000
     15 O15          0.1250     2.5840    -1.5090 o          1 94E      -0.630800
     16 O16          1.1470     3.1530     0.7040 o          1 94E      -0.630800
     17 H1          -0.3550    -0.1360    -1.0140 h1         1 94E       0.094700
     18 H2          -0.2680    -0.0430     2.7340 h1         1 94E       0.083700
     19 H3           1.9430    -0.8160    -0.5860 h1         1 94E       0.119700
     20 H4          -0.3510    -2.0480     0.4560 h1         1 94E       0.056700
     21 H5           1.7360    -2.0990     1.7270 h1         1 94E       0.037700
     22 H6           1.7970     0.9290     1.9180 hc         1 94E       0.106700
     23 H7           3.8770    -1.0830     0.9900 h1         1 94E       0.030700
     24 H8           4.0110     0.6690     0.7840 h1         1 94E       0.030700
     25 H9           5.0310     0.2170     2.6920 ho         1 94E       0.403000
     26 H10          2.1130    -2.0590     3.8560 ho         1 94E       0.412000
     27 H11         -1.0880    -1.6790     3.7990 ho         1 94E       0.424000
     28 H12         -2.4190    -1.6060     0.4290 ho         1 94E       0.411000
@<TRIPOS>BOND
     1    13     4 1
     2    15    14 2
     3     4     1 1
     4     4     2 1
     5     1     9 1
     6     1     3 1
     7     9    14 1
     8    12     2 1
     9    14     8 1
    10    14    16 2
    11     2     5 1
    12     3     8 1
    13     3     6 1
    14     5     6 1
    15     5    11 1
    16     6     7 1
    17    10     7 1
    18     1    17 1
    19     2    18 1
    20     3    19 1
    21     4    20 1
    22     5    21 1
    23     6    22 1
    24     7    23 1
    25     7    24 1
    26    10    25 1
    27    11    26 1
    28    12    27 1
    29    13    28 1
@<TRIPOS>SUBSTRUCTURE
     1 94E         1 TEMP              0 ****  ****    0 ROOT
