@<TRIPOS>MOLECULE
94F
   51    54     1     0     0
SMALL
bcc


@<TRIPOS>ATOM
      1 C31          0.0000     0.0000     0.0000 ca         1 94F      -0.065000
      2 C30          1.3830     0.0000     0.0000 ca         1 94F      -0.098000
      3 C32         -0.6930     0.0060     1.1950 ca         1 94F      -0.084000
      4 C29          2.0800     0.0000     1.1940 ca         1 94F      -0.044000
      5 C19         -1.7530     1.2630     5.4690 ca         1 94F      -0.065000
      6 C5          -2.7910    -2.2660     7.2610 ca         1 94F       0.634900
      7 C18         -2.1170     0.0640     6.0950 ca         1 94F      -0.224600
      8 C23          0.0040     0.0050     2.4020 cp         1 94F       0.017000
      9 C22         -0.7340     0.0100     3.6880 cp         1 94F      -0.076000
     10 C24          1.3980     0.0000     2.3950 ca         1 94F      -0.187300
     11 C3          -1.7790    -1.1770     5.5020 ca         1 94F       0.364600
     12 C2          -1.0810    -1.1910     4.2860 ca         1 94F       0.104600
     13 C20         -1.0750     1.2330     4.2880 ca         1 94F      -0.010600
     14 C7          -2.8220     0.0450     7.3240 ca         1 94F       0.533200
     15 C14         -6.7670     4.1570    12.3420 c3         1 94F       0.020900
     16 C13         -6.3150     3.6840    10.9590 c3         1 94F      -0.101400
     17 C12         -4.8270     3.4490    10.9710 c          1 94F       0.591100
     18 C9          -2.4820     1.3980     9.2730 c3         1 94F       0.132800
     19 C17         -4.5920     1.4010     8.0770 c3         1 94F       0.132800
     20 C10         -2.7500     2.7920     9.8510 c3         1 94F       0.051000
     21 C16         -4.9470     2.7950     8.6060 c3         1 94F       0.051000
     22 C25          2.1590    -0.0000     3.6960 c3         1 94F       0.645200
     23 N4          -2.1390    -2.3100     6.1240 nb         1 94F      -0.585000
     24 N6          -3.1290    -1.1310     7.8540 nb         1 94F      -0.641000
     25 N8          -3.1330     1.2810     7.9610 nh         1 94F      -0.516300
     26 N11         -4.2030     3.0240     9.8530 n          1 94F      -0.168800
     27 O15         -4.1900     3.6420    11.9850 o          1 94F      -0.642100
     28 F1          -0.7490    -2.3630     3.7030 f          1 94F      -0.103900
     29 F26          3.5330    -0.0010     3.4320 f          1 94F      -0.207967
     30 F27          1.8260     1.1420     4.4310 f          1 94F      -0.207967
     31 F28          1.8250    -1.1430     4.4310 f          1 94F      -0.207967
     32 Cl          -0.6350     2.7230     3.5140 cl         1 94F       0.012600
     33 H1          -0.5410     0.0000    -0.9390 ha         1 94F       0.108000
     34 H2           1.9220    -0.0020    -0.9400 ha         1 94F       0.111000
     35 H3          -1.7760     0.0060     1.1940 ha         1 94F       0.116000
     36 H4           3.1640    -0.0020     1.1880 ha         1 94F       0.124000
     37 H5          -2.0110     2.2120     5.9230 ha         1 94F       0.143000
     38 H6          -3.0660    -3.1990     7.7370 h5         1 94F       0.004100
     39 H7          -6.5260     3.4010    13.0790 hc         1 94F       0.009700
     40 H8          -7.8370     4.3260    12.3340 hc         1 94F       0.009700
     41 H9          -6.2580     5.0800    12.5920 hc         1 94F       0.009700
     42 H10         -6.8240     2.7610    10.7090 hc         1 94F       0.026700
     43 H11         -6.5550     4.4410    10.2220 hc         1 94F       0.026700
     44 H12         -1.4150     1.2540     9.1590 h1         1 94F       0.028200
     45 H13         -2.8840     0.6470     9.9430 h1         1 94F       0.028200
     46 H14         -5.0440     1.2590     7.1030 h1         1 94F       0.028200
     47 H15         -4.9610     0.6500     8.7660 h1         1 94F       0.028200
     48 H16         -2.2640     3.5390     9.2360 h1         1 94F       0.036200
     49 H17         -2.3720     2.8430    10.8640 h1         1 94F       0.036200
     50 H18         -4.6670     3.5420     7.8730 h1         1 94F       0.036200
     51 H19         -6.0110     2.8490     8.8020 h1         1 94F       0.036200
@<TRIPOS>BOND
     1     1     2 ar  
     2     1     3 ar  
     3     1    33 1   
     4     2     4 ar  
     5     2    34 1   
     6     3     8 ar  
     7     3    35 1   
     8     4    10 ar  
     9     4    36 1   
    10     5     7 ar  
    11     5    13 ar  
    12     5    37 1   
    13     6    23 ar  
    14     6    24 ar  
    15     6    38 1   
    16     7    11 ar  
    17     7    14 ar  
    18     8     9 1   
    19     8    10 ar  
    20     9    12 ar  
    21     9    13 ar  
    22    10    22 1   
    23    11    12 ar  
    24    11    23 ar  
    25    12    28 1   
    26    13    32 1   
    27    14    24 ar  
    28    14    25 1   
    29    15    16 1   
    30    15    39 1   
    31    15    40 1   
    32    15    41 1   
    33    16    17 1   
    34    16    42 1   
    35    16    43 1   
    36    17    26 1   
    37    17    27 2   
    38    18    20 1   
    39    18    25 1   
    40    18    44 1   
    41    18    45 1   
    42    19    21 1   
    43    19    25 1   
    44    19    46 1   
    45    19    47 1   
    46    20    26 1   
    47    20    48 1   
    48    20    49 1   
    49    21    26 1   
    50    21    50 1   
    51    21    51 1   
    52    22    29 1   
    53    22    30 1   
    54    22    31 1   
@<TRIPOS>SUBSTRUCTURE
     1 94F         1 TEMP              0 ****  ****    0 ROOT
