@<TRIPOS>MOLECULE
94G
   30    31     1     0     0
SMALL
bcc


@<TRIPOS>ATOM
      1 C5           0.0000     0.0000     0.0000 ca         1 94G       0.374200
      2 C6          -4.9890     1.1820    -1.7610 ca         1 94G      -0.164500
      3 C9           1.3900     0.0000     0.0000 ca         1 94G      -0.253300
      4 C3          -2.0340    -0.0990    -1.2210 c          1 94G       0.614100
      5 C15         -0.0610    -0.0000     2.3070 ca         1 94G       0.440200
      6 C14          2.0630     0.0000     1.2110 ca         1 94G       0.087100
      7 C13         -5.2690     2.2340    -2.6130 ca         1 94G       0.026500
      8 C12         -5.2200     1.3100    -0.4040 ca         1 94G       0.026500
      9 C16         -6.0120     3.5430    -0.7490 ca         1 94G       0.016400
     10 C17          1.3170     0.0000     2.3840 ca         1 94G      -0.236300
     11 C18         -5.7810     3.4150    -2.1080 ca         1 94G      -0.137500
     12 C19         -5.7310     2.4900     0.1020 ca         1 94G      -0.137500
     13 N10         -0.6740    -0.0000     1.1390 nb         1 94G      -0.546000
     14 N2          -2.6930    -0.1970    -2.3930 ns         1 94G      -0.318300
     15 N4          -0.6900     0.0050    -1.2120 ns         1 94G      -0.120400
     16 O11         -2.6520    -0.1050    -0.1740 o          1 94G      -0.606100
     17 O7          -4.6750    -1.3380    -1.4660 o          1 94G      -0.567300
     18 O8          -4.7320    -0.3760    -3.7720 o          1 94G      -0.567300
     19 S1          -4.3440    -0.3250    -2.4060 sy         1 94G       1.053900
     20 Br20         3.9530    -0.0000     1.2670 br         1 94G      -0.110100
     21 Cl21        -6.6540     5.0260    -0.1150 cl         1 94G      -0.018400
     22 H1           1.9390    -0.0000    -0.9340 ha         1 94G       0.126000
     23 H2          -0.6470    -0.0000     3.2180 h4         1 94G      -0.012900
     24 H3          -5.0880     2.1330    -3.6760 ha         1 94G       0.135500
     25 H4          -5.0000     0.4850     0.2630 ha         1 94G       0.135500
     26 H5           1.8110     0.0000     3.3470 ha         1 94G       0.128000
     27 H6          -6.0000     4.2400    -2.7750 ha         1 94G       0.121000
     28 H7          -5.9120     2.5910     1.1650 ha         1 94G       0.121000
     29 H8          -2.1820    -0.2330    -3.2530 hn         1 94G       0.221500
     30 H9          -0.1910     0.1230    -2.0710 hn         1 94G       0.167500
@<TRIPOS>BOND
     1     1     3 ar  
     2     1    13 ar  
     3     1    15 1   
     4     2     7 ar  
     5     2     8 ar  
     6     2    19 1   
     7     3     6 ar  
     8     3    22 1   
     9     4    14 1   
    10     4    15 1   
    11     4    16 2   
    12     5    10 ar  
    13     5    13 ar  
    14     5    23 1   
    15     6    10 ar  
    16     6    20 1   
    17     7    11 ar  
    18     7    24 1   
    19     8    12 ar  
    20     8    25 1   
    21     9    11 ar  
    22     9    12 ar  
    23     9    21 1   
    24    10    26 1   
    25    11    27 1   
    26    12    28 1   
    27    14    19 1   
    28    14    29 1   
    29    15    30 1   
    30    17    19 2   
    31    18    19 2   
@<TRIPOS>SUBSTRUCTURE
     1 94G         1 TEMP              0 ****  ****    0 ROOT
