@<TRIPOS>MOLECULE
molecule
   30    31     1     0     0
SMALL
bcc


@<TRIPOS>ATOM
      1 C5           0.0000     0.0000     0.0000 ca         1 94G       0.568200
      2 C6          -4.9890     1.1820    -1.7610 ca         1 94G      -0.319500
      3 C9           1.3900     0.0000     0.0000 ca         1 94G      -0.274300
      4 C3          -2.0340    -0.0990    -1.2210 c          1 94G       0.788100
      5 C15         -0.0610    -0.0000     2.3070 ca         1 94G       0.460200
      6 C14          2.0630     0.0000     1.2110 ca         1 94G       0.042100
      7 C13         -5.2690     2.2340    -2.6130 ca         1 94G      -0.006500
      8 C12         -5.2200     1.3100    -0.4040 ca         1 94G      -0.006500
      9 C16         -6.0120     3.5430    -0.7490 ca         1 94G       0.083400
     10 C17          1.3170     0.0000     2.3840 ca         1 94G      -0.264300
     11 C18         -5.7810     3.4150    -2.1080 ca         1 94G      -0.151000
     12 C19         -5.7310     2.4900     0.1020 ca         1 94G      -0.151000
     13 N10         -0.6740    -0.0000     1.1390 nb         1 94G      -0.673000
     14 N2          -2.6930    -0.1970    -2.3930 ns         1 94G      -0.665300
     15 N4          -0.6900     0.0050    -1.2120 ns         1 94G      -0.553400
     16 O11         -2.6520    -0.1050    -0.1740 o          1 94G      -0.558100
     17 O7          -4.6750    -1.3380    -1.4660 o          1 94G      -0.611800
     18 O8          -4.7320    -0.3760    -3.7720 o          1 94G      -0.611800
     19 S1          -4.3440    -0.3250    -2.4060 sy         1 94G       1.428900
     20 Br20         3.9530    -0.0000     1.2670 br         1 94G      -0.073100
     21 Cl21        -6.6540     5.0260    -0.1150 cl         1 94G      -0.098400
     22 H1           1.9390    -0.0000    -0.9340 ha         1 94G       0.148000
     23 H2          -0.6470    -0.0000     3.2180 h4         1 94G       0.038100
     24 H3          -5.0880     2.1330    -3.6760 ha         1 94G       0.165500
     25 H4          -5.0000     0.4850     0.2630 ha         1 94G       0.165500
     26 H5           1.8110     0.0000     3.3470 ha         1 94G       0.154000
     27 H6          -6.0000     4.2400    -2.7750 ha         1 94G       0.151000
     28 H7          -5.9120     2.5910     1.1650 ha         1 94G       0.151000
     29 H8          -2.1820    -0.2330    -3.2530 hn         1 94G       0.339500
     30 H9          -0.1910     0.1230    -2.0710 hn         1 94G       0.331500
@<TRIPOS>BOND
     1    18    19 2
     2     8    12 ar
     3     8     2 ar
     4    12     9 ar
     5    19     2 1
     6    19    17 2
     7    19    14 1
     8     2     7 ar
     9     9    21 1
    10     9    11 ar
    11     7    11 ar
    12    14     4 1
    13     4    16 2
    14     4    15 1
    15    15     1 1
    16     1    13 ar
    17     1     3 ar
    18    13     5 ar
    19     3     6 ar
    20     5    10 ar
    21     6    10 ar
    22     6    20 1
    23     3    22 1
    24     5    23 1
    25     7    24 1
    26     8    25 1
    27    10    26 1
    28    11    27 1
    29    12    28 1
    30    14    29 1
    31    15    30 1
@<TRIPOS>SUBSTRUCTURE
     1 94G         1 TEMP              0 ****  ****    0 ROOT
