@<TRIPOS>MOLECULE
molecule
   45    48     1     0     0
SMALL
bcc


@<TRIPOS>ATOM
      1 C1           0.0000     0.0000     0.0000 ca         1 94H      -0.092000
      2 C2           1.3820     0.0000     0.0000 ca         1 94H      -0.109500
      3 C3          -0.6920     0.0060     1.1960 ca         1 94H      -0.109500
      4 C4           8.0380    -8.2280     5.5530 ca         1 94H      -0.274300
      5 C5           7.5430    -6.9680     5.2740 ca         1 94H      -0.053000
      6 C6           2.0730     0.0000     1.1970 ca         1 94H      -0.112000
      7 C7          -0.0000     0.0130     2.3940 ca         1 94H      -0.112000
      8 C8           5.6100    -3.0880     5.5630 cc         1 94H      -0.059000
      9 C9           8.7110    -8.4440     6.7460 ca         1 94H       0.460200
     10 C10          7.8630    -4.0740     7.4660 cd         1 94H      -0.058100
     11 C11          6.9320    -3.8530     3.8340 cd         1 94H      -0.051100
     12 C12          7.7460    -5.9580     6.2150 ca         1 94H      -0.218100
     13 C13          6.6680    -3.8880     5.1670 cc         1 94H      -0.034800
     14 C14          7.3850    -4.5350     6.2860 cc         1 94H      -0.109400
     15 C15          1.3810     0.0010     2.3940 ca         1 94H      -0.138300
     16 C16          5.0250    -2.4150     4.5310 cd         1 94H      -0.182700
     17 C17          8.4380    -6.2490     7.4050 ca         1 94H       0.470800
     18 C19          2.6180     1.4280     4.0010 c3         1 94H       0.074800
     19 C20          2.1350     0.0080     3.7000 c3         1 94H       0.155000
     20 N21          8.8960    -7.4760     7.6180 nb         1 94H      -0.704000
     21 N22          8.4910    -5.0880     8.1380 na         1 94H      -0.270100
     22 N23          3.2870    -0.8900     3.6030 ns         1 94H      -0.584900
     23 N24          3.4530     1.4130     5.2100 nz         1 94H      -0.818600
     24 O25          3.4000    -1.1830     5.8360 o          1 94H      -0.644100
     25 S26          5.8440    -2.8150     3.0290 ss         1 94H      -0.079800
     26 H1          -0.5410     0.0220    -0.9380 ha         1 94H       0.154000
     27 H2           1.9100     0.0070    -0.9460 ha         1 94H       0.152500
     28 H3          -1.7750    -0.0140     1.2090 ha         1 94H       0.152500
     29 H6           3.1560     0.0070     1.1980 ha         1 94H       0.128000
     30 H7          -0.5430     0.0250     3.3310 ha         1 94H       0.128000
     31 H8           5.2370    -3.0120     6.5770 ha         1 94H       0.175000
     32 H9           9.0890    -9.4350     6.9700 h4         1 94H       0.034100
     33 H10          7.7880    -3.0590     7.8370 h4         1 94H       0.169000
     34 H11          7.7010    -4.4220     3.3260 h4         1 94H       0.196000
     35 H12          3.2090     1.7870     3.1670 hx         1 94H       0.112200
     36 H13          1.7700     2.0870     4.1450 hx         1 94H       0.112200
     37 H14          1.4860    -0.3390     4.4950 h1         1 94H       0.107700
     38 H15          8.9260    -4.9970     9.0350 hn         1 94H       0.315700
     39 H16          3.8380    -0.9850     2.7730 hn         1 94H       0.344500
     40 H17          3.0670     0.7680     5.8710 hn         1 94H       0.462800
     41 H18          4.4110     1.1980     5.0190 hn         1 94H       0.462800
     42 C18          3.8060    -1.4430     4.7180 c          1 94H       0.704700
     43 H4           7.9080    -9.0200     4.8260 ha         1 94H       0.146000
     44 H243         3.3860     2.3360     5.5930 hn         1 94H       0.462800
     45 H5           7.0180    -6.7650     4.3480 ha         1 94H       0.135000
@<TRIPOS>BOND
     1     3     1 ar
     2     3     7 ar
     3     1     2 ar
     4     7    15 ar
     5    24    42 2
     6     2     6 ar
     7    25    16 1
     8    25    11 1
     9    15     6 ar
    10    15    19 1
    11    42    16 1
    12    42    22 1
    13    19    22 1
    14    19    18 1
    15    16     8 2
    16    11    13 2
    17    23    18 1
    18     8    13 1
    19    13    14 1
    20    14    10 2
    21    14    12 1
    22    10    21 1
    23    12     5 ar
    24    12    17 ar
    25     5     4 ar
    26    21    17 1
    27    17    20 ar
    28     4     9 ar
    29     9    20 ar
    30     1    26 1
    31     2    27 1
    32     3    28 1
    33     4    43 1
    34     5    45 1
    35     6    29 1
    36     7    30 1
    37     8    31 1
    38     9    32 1
    39    10    33 1
    40    11    34 1
    41    18    35 1
    42    18    36 1
    43    19    37 1
    44    21    38 1
    45    22    39 1
    46    23    40 1
    47    23    41 1
    48    44    23 1
@<TRIPOS>SUBSTRUCTURE
     1 94H         1 TEMP              0 ****  ****    0 ROOT
