@<TRIPOS>MOLECULE
molecule
   48    50     1     0     0
SMALL
bcc


@<TRIPOS>ATOM
      1 C5           0.0000     0.0000     0.0000 cp         1 94I       0.337500
      2 C3          -0.2500     0.6890    -2.3960 ca         1 94I       0.483200
      3 C2          -2.0780    -0.0020    -3.6030 ca         1 94I       0.696900
      4 C7           1.2860     0.0000     2.3700 ca         1 94I       0.687900
      5 C14         -2.6100     1.1830     0.4870 c3         1 94I       0.150300
      6 C13         -3.9410     0.9560    -0.0660 c3         1 94I      -0.087900
      7 C12         -4.9760     0.6670     1.0430 c3         1 94I      -0.078400
      8 C9          -2.6030     0.0180     2.5680 c3         1 94I       0.150300
      9 C10         -3.8460    -0.8810     2.7130 c3         1 94I      -0.087900
     10 C16          5.5170     0.1010    -0.0090 c2         1 94I       0.518800
     11 N4          -0.0410     0.0060     2.3690 nb         1 94I      -0.729000
     12 N6           4.1360     0.1070    -0.0090 ns         1 94I      -0.472400
     13 N8           6.2040     0.2180    -1.1940 nz         1 94I      -0.809600
     14 O1           4.0700    -0.1150     2.2010 o          1 94I      -0.476100
     15 N7           6.1670    -0.0150     1.1130 n2         1 94I      -0.682100
     16 C6           1.9890     0.0000     1.1530 ca         1 94I       0.164500
     17 N3           1.3230     0.0000     0.0000 nb         1 94I      -0.645000
     18 N9           1.9760     0.0010     3.5670 nv         1 94I      -1.068500
     19 C8          -0.7050     0.0060     1.2220 ca         1 94I       0.576900
     20 C4          -0.7410     0.0010    -1.2830 cp         1 94I      -0.414100
     21 N2          -0.9430     0.6630    -3.5210 nb         1 94I      -0.735000
     22 N1          -2.5790    -0.6610    -2.5770 nb         1 94I      -0.735000
     23 C1          -1.9510    -0.6870    -1.4140 ca         1 94I       0.483200
     24 N5          -2.0860     0.0120     1.2210 nh         1 94I      -0.682300
     25 C11         -4.8030    -0.7540     1.5100 c3         1 94I      -0.078400
     26 H1           0.6820     1.2380    -2.3370 h4         1 94I       0.047100
     27 H2          -2.6200    -0.0020    -4.5410 h5         1 94I       0.073100
     28 H3          -2.6560     2.0260     1.1660 h1         1 94I       0.059450
     29 H4          -1.9320     1.4170    -0.3240 h1         1 94I       0.059450
     30 H5          -4.2490     1.8390    -0.6140 hc         1 94I       0.058200
     31 H6          -4.8160     1.3430     1.8740 hc         1 94I       0.049200
     32 H7          -1.8330    -0.3380     3.2410 h1         1 94I       0.059450
     33 H8          -2.8710     1.0320     2.8360 h1         1 94I       0.059450
     34 H9          -3.5230    -1.9120     2.7950 hc         1 94I       0.058200
     35 H10         -4.3770    -0.6010     3.6140 hc         1 94I       0.058200
     36 H11          3.6370     0.2320    -0.8670 hn         1 94I       0.355500
     37 H12          5.8580    -0.4560    -1.8480 hn         1 94I       0.467133
     38 H13          6.0770     1.1390    -1.5640 hn         1 94I       0.467133
     39 H14          7.1680    -0.0190     1.1140 hn         1 94I       0.434400
     40 H15          2.2030     0.8680     4.0130 hn         1 94I       0.458300
     41 H16          2.2050    -0.8660     4.0130 hn         1 94I       0.458300
     42 H17         -2.3680    -1.2310    -0.5750 h4         1 94I       0.047100
     43 H18         -4.4110    -1.3430     0.6900 hc         1 94I       0.049200
     44 H19         -5.7720    -1.1450     1.7960 hc         1 94I       0.049200
     45 H20         -3.9020     0.1100    -0.7420 hc         1 94I       0.058200
     46 H21         -5.9770     0.7990     0.6490 hc         1 94I       0.049200
     47 C15          3.4620    -0.0070     1.1530 c          1 94I       0.590600
     48 H83          7.1780     0.0550    -1.0320 hn         1 94I       0.467133
@<TRIPOS>BOND
     1    18     4 1
     2    14    47 2
     3    15    10 2
     4     4    11 ar
     5     4    16 ar
     6    47    16 1
     7    47    12 1
     8    11    19 ar
     9    16    17 ar
    10    10    12 1
    11    10    13 1
    12     9     8 1
    13     9    25 1
    14     8    24 1
    15    19    24 1
    16    19     1 ar
    17    25     7 1
    18    17     1 ar
    19    24     5 1
    20     1    20 1
    21     5     6 1
    22     7     6 1
    23    20     2 ar
    24    20    23 ar
    25     2    21 ar
    26    23    22 ar
    27    21     3 ar
    28    22     3 ar
    29     2    26 1
    30     3    27 1
    31     5    28 1
    32     5    29 1
    33     6    30 1
    34     7    31 1
    35     8    32 1
    36     8    33 1
    37     9    34 1
    38     9    35 1
    39    12    36 1
    40    13    37 1
    41    13    38 1
    42    15    39 1
    43    18    40 1
    44    18    41 1
    45    23    42 1
    46    25    43 1
    47    25    44 1
    48     6    45 1
    49     7    46 1
    50    48    13 1
@<TRIPOS>SUBSTRUCTURE
     1 94I         1 TEMP              0 ****  ****    0 ROOT
