@<TRIPOS>MOLECULE
94I
   48    50     1     0     0
SMALL
bcc


@<TRIPOS>ATOM
      1 C5           0.0000     0.0000     0.0000 cp         1 94I       0.299500
      2 C3          -0.2500     0.6890    -2.3960 ca         1 94I       0.458200
      3 C2          -2.0780    -0.0020    -3.6030 ca         1 94I       0.651900
      4 C7           1.2860     0.0000     2.3700 ca         1 94I       0.533900
      5 C14         -2.6100     1.1830     0.4870 c3         1 94I       0.100300
      6 C13         -3.9410     0.9560    -0.0660 c3         1 94I      -0.039900
      7 C12         -4.9760     0.6670     1.0430 c3         1 94I      -0.027400
      8 C9          -2.6030     0.0180     2.5680 c3         1 94I       0.100300
      9 C10         -3.8460    -0.8810     2.7130 c3         1 94I      -0.039900
     10 C16          5.5170     0.1010    -0.0090 c2         1 94I       0.051800
     11 N4          -0.0410     0.0060     2.3690 nb         1 94I      -0.617000
     12 N6           4.1360     0.1070    -0.0090 ns         1 94I      -0.067400
     13 N8           6.2040     0.2180    -1.1940 nz         1 94I       0.188400
     14 O1           4.0700    -0.1150     2.2010 o          1 94I      -0.606100
     15 N7           6.1670    -0.0150     1.1130 n2         1 94I      -0.580100
     16 C6           1.9890     0.0000     1.1530 ca         1 94I       0.083500
     17 N3           1.3230     0.0000     0.0000 nb         1 94I      -0.512000
     18 N9           1.9760     0.0010     3.5670 nv         1 94I      -0.644500
     19 C8          -0.7050     0.0060     1.2220 ca         1 94I       0.457900
     20 C4          -0.7410     0.0010    -1.2830 cp         1 94I      -0.413100
     21 N2          -0.9430     0.6630    -3.5210 nb         1 94I      -0.622000
     22 N1          -2.5790    -0.6610    -2.5770 nb         1 94I      -0.622000
     23 C1          -1.9510    -0.6870    -1.4140 ca         1 94I       0.458200
     24 N5          -2.0860     0.0120     1.2210 nh         1 94I      -0.415300
     25 C11         -4.8030    -0.7540     1.5100 c3         1 94I      -0.027400
     26 H1           0.6820     1.2380    -2.3370 h4         1 94I       0.002600
     27 H2          -2.6200    -0.0020    -4.5410 h5         1 94I       0.011100
     28 H3          -1.9320     1.4170    -0.3240 h1         1 94I       0.039200
     29 H4          -2.6560     2.0260     1.1660 h1         1 94I       0.039200
     30 H5          -4.2490     1.8390    -0.6140 hc         1 94I       0.030450
     31 H6          -5.9770     0.7990     0.6490 hc         1 94I       0.023200
     32 H7          -2.8710     1.0320     2.8360 h1         1 94I       0.039200
     33 H8          -1.8330    -0.3380     3.2410 h1         1 94I       0.039200
     34 H9          -4.3770    -0.6010     3.6140 hc         1 94I       0.030450
     35 H10         -3.5230    -1.9120     2.7950 hc         1 94I       0.030450
     36 H11          3.6360     0.1710    -0.8740 hn         1 94I       0.202500
     37 H12          5.9580     1.0800    -1.6390 hn         1 94I       0.221467
     38 H13          7.1880     0.2060    -1.0110 hn         1 94I       0.221467
     39 H14          5.6680    -0.1000     1.9770 hn         1 94I       0.457400
     40 H15          2.2040     0.8680     4.0130 hn         1 94I       0.298300
     41 H16          2.2040    -0.8660     4.0130 hn         1 94I       0.298300
     42 H17         -2.3680    -1.2310    -0.5750 h4         1 94I       0.002600
     43 H18         -4.4110    -1.3430     0.6900 hc         1 94I       0.023200
     44 H19         -5.7720    -1.1450     1.7960 hc         1 94I       0.023200
     45 H20         -3.9020     0.1100    -0.7420 hc         1 94I       0.030450
     46 H21         -4.8160     1.3430     1.8740 hc         1 94I       0.023200
     47 C15          3.4620    -0.0070     1.1530 c          1 94I       0.540600
     48 H83          5.9600    -0.5420    -1.7980 hn         1 94I       0.221467
@<TRIPOS>BOND
     1     1    17 ar  
     2     1    19 ar  
     3     1    20 1   
     4     2    20 ar  
     5     2    21 ar  
     6     2    26 1   
     7     3    21 ar  
     8     3    22 ar  
     9     3    27 1   
    10     4    11 ar  
    11     4    16 ar  
    12     4    18 1   
    13     5     6 1   
    14     5    24 1   
    15     5    28 1   
    16     5    29 1   
    17     6     7 1   
    18     6    30 1   
    19     6    45 1   
    20     7    25 1   
    21     7    31 1   
    22     7    46 1   
    23     8     9 1   
    24     8    24 1   
    25     8    32 1   
    26     8    33 1   
    27     9    25 1   
    28     9    34 1   
    29     9    35 1   
    30    10    12 1   
    31    10    13 1   
    32    10    15 2   
    33    11    19 ar  
    34    12    36 1   
    35    12    47 1   
    36    13    37 1   
    37    13    38 1   
    38    13    48 1   
    39    14    47 2   
    40    15    39 1   
    41    16    17 ar  
    42    16    47 1   
    43    18    40 1   
    44    18    41 1   
    45    19    24 1   
    46    20    23 ar  
    47    22    23 ar  
    48    23    42 1   
    49    25    43 1   
    50    25    44 1   
@<TRIPOS>SUBSTRUCTURE
     1 94I         1 TEMP              0 ****  ****    0 ROOT
