@<TRIPOS>MOLECULE
molecule
   55    56     1     0     0
SMALL
bcc


@<TRIPOS>ATOM
      1 C5           0.0000     0.0000     0.0000 c          1 94J       0.795600
      2 C6           8.9360     0.0170    -4.1130 c          1 94J       0.795600
      3 C7          -2.8590    -1.5130     0.4510 ca         1 94J      -0.308000
      4 C8          11.1360     1.5510    -5.9760 ca         1 94J      -0.308000
      5 C14         10.2290     1.6510    -7.0140 ca         1 94J      -0.009500
      6 C13         -3.0690    -2.6180     1.2540 ca         1 94J      -0.009500
      7 C19         -3.4840    -3.8130     0.6920 ca         1 94J      -0.001600
      8 C20         10.0670     2.8530    -7.6780 ca         1 94J      -0.001600
      9 C23         11.8820     2.6530    -5.6020 ca         1 94J      -0.016000
     10 C24         -3.0690    -1.6000    -0.9130 ca         1 94J      -0.016000
     11 C25         -3.4840    -2.7930    -1.4740 ca         1 94J      -0.148000
     12 C26         11.7210     3.8550    -6.2650 ca         1 94J      -0.148000
     13 C27          6.6200     0.0150    -3.3570 c3         1 94J       0.124500
     14 C28          2.0800     0.0060    -1.2680 c3         1 94J       0.124500
     15 C29         -3.6890    -3.9000    -0.6730 ca         1 94J      -0.065500
     16 C30         10.8140     3.9560    -7.3030 ca         1 94J      -0.065500
     17 C31          5.8540     0.0080    -2.0320 c3         1 94J      -0.101900
     18 C32          3.5840     0.0030    -0.9880 c3         1 94J      -0.101900
     19 C33          4.3500     0.0100    -2.3120 c3         1 94J      -0.073400
     20 N17          1.3470     0.0000     0.0000 ns         1 94J      -0.589900
     21 N18          8.0600     0.0120    -3.0900 ns         1 94J      -0.589900
     22 N3          10.2610     0.0160    -3.8670 ns         1 94J      -0.663800
     23 N4          -0.6740     0.0000     1.1670 ns         1 94J      -0.663800
     24 O10         10.9110    -0.9950    -6.0220 o          1 94J      -0.612800
     25 O11         12.6330     0.0530    -4.5440 o          1 94J      -0.612800
     26 O12         -2.7280     1.0340     0.2660 o          1 94J      -0.612800
     27 O15         -0.6080     0.0050    -1.0530 o          1 94J      -0.629600
     28 O16          8.5310     0.0230    -5.2600 o          1 94J      -0.629600
     29 O9          -2.7330    -0.0280     2.5290 o          1 94J      -0.612800
     30 S1          -2.3310     0.0070     1.1660 sy         1 94J       1.430400
     31 S2          11.3370     0.0220    -5.1250 sy         1 94J       1.430400
     32 Cl21        -3.7470    -5.2010     1.7000 cl         1 94J      -0.099400
     33 Cl22         8.9280     2.9790    -8.9820 cl         1 94J      -0.099400
     34 H1           9.6450     0.7870    -7.3070 ha         1 94J       0.172500
     35 H2          -2.9060    -2.5500     2.3220 ha         1 94J       0.172500
     36 H3          12.5930     2.5750    -4.7880 ha         1 94J       0.163000
     37 H4          -2.9070    -0.7330    -1.5420 ha         1 94J       0.163000
     38 H5          -3.6470    -2.8600    -2.5430 ha         1 94J       0.144000
     39 H6          12.3060     4.7190    -5.9710 ha         1 94J       0.144000
     40 H7           6.3580    -0.8670    -3.9300 h1         1 94J       0.059950
     41 H8           6.3590     0.9020    -3.9210 h1         1 94J       0.059950
     42 H9           1.8180    -0.8760    -1.8410 h1         1 94J       0.059950
     43 H10          1.8190     0.8930    -1.8320 h1         1 94J       0.059950
     44 H11         -4.0140    -4.8350    -1.1140 ha         1 94J       0.147000
     45 H12         10.6880     4.8980    -7.8230 ha         1 94J       0.147000
     46 H13          6.1160    -0.8790    -1.4690 hc         1 94J       0.047200
     47 H14          6.1160     0.8900    -1.4600 hc         1 94J       0.047200
     48 H15          3.8450    -0.8840    -0.4250 hc         1 94J       0.047200
     49 H16          3.8460     0.8850    -0.4150 hc         1 94J       0.047200
     50 H17          4.0880    -0.8710    -2.8850 hc         1 94J       0.053700
     51 H18          4.0880     0.8980    -2.8760 hc         1 94J       0.053700
     52 H19          1.8480    -0.0050     0.8670 hn         1 94J       0.312500
     53 H20          8.3930     0.0070    -2.1460 hn         1 94J       0.312500
     54 H21         10.5940    -0.0250    -2.9240 hn         1 94J       0.339500
     55 H22         -0.1750     0.0240     2.0340 hn         1 94J       0.339500
@<TRIPOS>BOND
     1    26    30 2
     2    11    10 ar
     3    11    15 ar
     4    10     3 ar
     5    15     7 ar
     6     3    30 1
     7     3     6 ar
     8    30    29 2
     9    30    23 1
    10     7     6 ar
    11     7    32 1
    12    23     1 1
    13     1    27 2
    14     1    20 1
    15    20    14 1
    16    14    18 1
    17    17    13 1
    18    17    19 1
    19    18    19 1
    20    13    21 1
    21    21     2 1
    22     2    28 2
    23     2    22 1
    24    22    31 1
    25    31     4 1
    26    31    24 2
    27    31    25 2
    28     4     9 ar
    29     4     5 ar
    30     9    12 ar
    31    12    16 ar
    32     5     8 ar
    33     8    16 ar
    34     8    33 1
    35     5    34 1
    36     6    35 1
    37     9    36 1
    38    10    37 1
    39    11    38 1
    40    12    39 1
    41    13    40 1
    42    13    41 1
    43    14    42 1
    44    14    43 1
    45    15    44 1
    46    16    45 1
    47    17    46 1
    48    17    47 1
    49    18    48 1
    50    18    49 1
    51    19    50 1
    52    19    51 1
    53    20    52 1
    54    21    53 1
    55    22    54 1
    56    23    55 1
@<TRIPOS>SUBSTRUCTURE
     1 94J         1 TEMP              0 ****  ****    0 ROOT
