@<TRIPOS>MOLECULE
94L
   53    56     1     0     0
SMALL
bcc


@<TRIPOS>ATOM
      1 C10          0.0000     0.0000     0.0000 ca         1 94L      -0.216600
      2 C13          2.0970     0.0000     1.1750 ca         1 94L      -0.183000
      3 C15          0.0100     0.0090     2.4020 ca         1 94L      -0.238600
      4 C17         -0.6730     0.0060     3.7080 c          1 94L       0.629100
      5 C20         -0.5410    -0.0080     6.0810 ca         1 94L      -0.093400
      6 C21          1.4250    -0.0150     4.7590 c          1 94L       0.593500
      7 C24         -0.8480     1.1930     6.7070 ca         1 94L      -0.043800
      8 C26         -1.7750    -0.0120     8.5580 ca         1 94L      -0.072000
      9 C28         -0.8600    -1.2100     6.6970 ca         1 94L      -0.043800
     10 C1           0.7500    -0.8580    -4.7430 c3         1 94L      -0.019200
     11 C2           0.9730     0.5890    -5.1800 c3         1 94L      -0.010400
     12 C3           1.6520     1.3630    -4.0430 c3         1 94L      -0.121400
     13 C4           0.6990     1.3750    -2.8660 c          1 94L       0.643300
     14 C5          -0.0070     0.1280    -2.5490 ce         1 94L      -0.373400
     15 C6           0.0130    -0.9190    -3.4370 c2         1 94L       0.192900
     16 O7          -0.6510    -2.0420    -3.1260 oh         1 94L      -0.463100
     17 C9          -0.7380     0.0010    -1.2780 c          1 94L       0.687900
     18 O11         -1.9500    -0.1040    -1.2820 o          1 94L      -0.547100
     19 C12          1.4000     0.0000     0.0000 ca         1 94L       0.009000
     20 C14          1.4180    -0.0020     2.3870 ca         1 94L      -0.021400
     21 C16         -0.6990     0.0040     1.2080 ca         1 94L       0.075000
     22 N18          0.0840    -0.0050     4.8260 n          1 94L       0.041400
     23 O19         -1.8880     0.0150     3.7760 o          1 94L      -0.628500
     24 O22          2.0590    -0.0260     5.7950 o          1 94L      -0.696500
     25 N23          2.0960    -0.0130     3.5950 n          1 94L       0.044000
     26 C25         -1.4640     1.1870     7.9440 ca         1 94L      -0.107000
     27 C27         -1.4760    -1.2090     7.9330 ca         1 94L      -0.107000
     28 C29         -0.5080     2.5000     6.0390 c3         1 94L       0.049200
     29 C30         -0.5350    -2.5160     6.0170 c3         1 94L       0.049200
     30 C31          3.5600    -0.0240     3.6030 c3         1 94L       0.051300
     31 H1           3.1800    -0.0000     1.1620 ha         1 94L       0.122000
     32 H2          -2.2570    -0.0140     9.5270 ha         1 94L       0.101000
     33 H3           1.7110    -1.3460    -4.6300 hc         1 94L       0.031700
     34 H4           0.1720    -1.3710    -5.5010 hc         1 94L       0.031700
     35 H5           1.6080     0.6070    -6.0570 hc         1 94L       0.025700
     36 H6           0.0190     1.0480    -5.4080 hc         1 94L       0.025700
     37 H7           2.5740     0.8680    -3.7620 hc         1 94L       0.040200
     38 H8           1.8550     2.3780    -4.3600 hc         1 94L       0.040200
     39 H11         -1.0540    -2.3940    -3.9020 ho         1 94L       0.415000
     40 H12          1.9370    -0.0030    -0.9410 ha         1 94L       0.104000
     41 H13         -1.7700     0.1640     1.2130 ha         1 94L       0.145000
     42 H14         -1.7020     2.1230     8.4340 ha         1 94L       0.108000
     43 H15         -1.7220    -2.1470     8.4150 ha         1 94L       0.108000
     44 H16         -1.0210     2.5640     5.0870 hc         1 94L       0.013533
     45 H17         -0.8200     3.3210     6.6730 hc         1 94L       0.013533
     46 H18          0.5620     2.5560     5.8770 hc         1 94L       0.013533
     47 H19          0.5350    -2.5850     5.8620 hc         1 94L       0.013533
     48 H20         -0.8630    -3.3390     6.6410 hc         1 94L       0.013533
     49 H21         -1.0420    -2.5620     5.0610 hc         1 94L       0.013533
     50 H22          3.9150    -0.0380     4.6270 h1         1 94L       0.029033
     51 H23          3.9180    -0.9050     3.0850 h1         1 94L       0.029033
     52 H24          3.9310     0.8640     3.1050 h1         1 94L       0.029033
     53 O8           0.5250     2.3790    -2.2090 o          1 94L      -0.549100
@<TRIPOS>BOND
     1     1    17 1   
     2     1    19 ar  
     3     1    21 ar  
     4     2    19 ar  
     5     2    20 ar  
     6     2    31 1   
     7     3     4 1   
     8     3    20 ar  
     9     3    21 ar  
    10     4    22 1   
    11     4    23 2   
    12     5     7 ar  
    13     5     9 ar  
    14     5    22 1   
    15     6    22 1   
    16     6    24 2   
    17     6    25 1   
    18     7    26 ar  
    19     7    28 1   
    20     8    26 ar  
    21     8    27 ar  
    22     8    32 1   
    23     9    27 ar  
    24     9    29 1   
    25    10    11 1   
    26    10    15 1   
    27    10    33 1   
    28    10    34 1   
    29    11    12 1   
    30    11    35 1   
    31    11    36 1   
    32    12    13 1   
    33    12    37 1   
    34    12    38 1   
    35    13    14 1   
    36    13    53 2   
    37    14    15 2   
    38    14    17 1   
    39    15    16 1   
    40    16    39 1   
    41    17    18 2   
    42    19    40 1   
    43    20    25 1   
    44    21    41 1   
    45    25    30 1   
    46    26    42 1   
    47    27    43 1   
    48    28    44 1   
    49    28    45 1   
    50    28    46 1   
    51    29    47 1   
    52    29    48 1   
    53    29    49 1   
    54    30    50 1   
    55    30    51 1   
    56    30    52 1   
@<TRIPOS>SUBSTRUCTURE
     1 94L         1 TEMP              0 ****  ****    0 ROOT
