@<TRIPOS>MOLECULE
molecule
   53    56     1     0     0
SMALL
bcc


@<TRIPOS>ATOM
      1 C10          0.0000     0.0000     0.0000 ca         1 94L      -0.204600
      2 C13          2.0970     0.0000     1.1750 ca         1 94L      -0.203000
      3 C15          0.0100     0.0090     2.4020 ca         1 94L      -0.225600
      4 C17         -0.6730     0.0060     3.7080 c          1 94L       0.715100
      5 C20         -0.5410    -0.0080     6.0810 ca         1 94L       0.042600
      6 C21          1.4250    -0.0150     4.7590 c          1 94L       0.815500
      7 C24         -0.8480     1.1930     6.7070 ca         1 94L      -0.045800
      8 C26         -1.7750    -0.0120     8.5580 ca         1 94L      -0.107000
      9 C28         -0.8600    -1.2100     6.6970 ca         1 94L      -0.045800
     10 C1           0.7500    -0.8580    -4.7430 c3         1 94L      -0.087200
     11 C2           0.9730     0.5890    -5.1800 c3         1 94L      -0.072400
     12 C3           1.6520     1.3630    -4.0430 c3         1 94L      -0.179400
     13 C4           0.6990     1.3750    -2.8660 c          1 94L       0.588300
     14 C5          -0.0070     0.1280    -2.5490 ce         1 94L      -0.341400
     15 C6           0.0130    -0.9190    -3.4370 c2         1 94L       0.172900
     16 O7          -0.6510    -2.0420    -3.1260 oh         1 94L      -0.480100
     17 C9          -0.7380     0.0010    -1.2780 c          1 94L       0.624900
     18 O11         -1.9500    -0.1040    -1.2820 o          1 94L      -0.509100
     19 C12          1.4000     0.0000     0.0000 ca         1 94L      -0.021000
     20 C14          1.4180    -0.0020     2.3870 ca         1 94L       0.124600
     21 C16         -0.6990     0.0040     1.2080 ca         1 94L       0.033000
     22 N18          0.0840    -0.0050     4.8260 n          1 94L      -0.378600
     23 O19         -1.8880     0.0150     3.7760 o          1 94L      -0.587500
     24 O22          2.0590    -0.0260     5.7950 o          1 94L      -0.642500
     25 N23          2.0960    -0.0130     3.5950 n          1 94L      -0.362000
     26 C25         -1.4640     1.1870     7.9440 ca         1 94L      -0.131500
     27 C27         -1.4760    -1.2090     7.9330 ca         1 94L      -0.131500
     28 C29         -0.5080     2.5000     6.0390 c3         1 94L      -0.051800
     29 C30         -0.5350    -2.5160     6.0170 c3         1 94L      -0.051800
     30 C31          3.5600    -0.0240     3.6030 c3         1 94L       0.094300
     31 H1           3.1800    -0.0000     1.1620 ha         1 94L       0.142000
     32 H2          -2.2570    -0.0140     9.5270 ha         1 94L       0.131000
     33 H3           1.7110    -1.3460    -4.6300 hc         1 94L       0.066200
     34 H4           0.1720    -1.3710    -5.5010 hc         1 94L       0.066200
     35 H5           1.6080     0.6070    -6.0570 hc         1 94L       0.058700
     36 H6           0.0190     1.0480    -5.4080 hc         1 94L       0.058700
     37 H7           2.5740     0.8680    -3.7620 hc         1 94L       0.073200
     38 H8           1.8550     2.3780    -4.3600 hc         1 94L       0.073200
     39 H11         -1.0540    -2.3940    -3.9020 ho         1 94L       0.435000
     40 H12          1.9370    -0.0030    -0.9410 ha         1 94L       0.137000
     41 H13         -1.7700     0.1640     1.2130 ha         1 94L       0.181000
     42 H14         -1.7020     2.1230     8.4340 ha         1 94L       0.134000
     43 H15         -1.7220    -2.1470     8.4150 ha         1 94L       0.134000
     44 H16         -1.0210     2.5640     5.0870 hc         1 94L       0.048200
     45 H17         -0.8200     3.3210     6.6730 hc         1 94L       0.048200
     46 H18          0.5620     2.5560     5.8770 hc         1 94L       0.048200
     47 H19          0.5350    -2.5850     5.8620 hc         1 94L       0.048200
     48 H20         -0.8630    -3.3390     6.6410 hc         1 94L       0.048200
     49 H21         -1.0420    -2.5620     5.0610 hc         1 94L       0.048200
     50 H22          3.9150    -0.0380     4.6270 h1         1 94L       0.060033
     51 H23          3.9180    -0.9050     3.0850 h1         1 94L       0.060033
     52 H24          3.9310     0.8640     3.1050 h1         1 94L       0.060033
     53 O8           0.5250     2.3790    -2.2090 o          1 94L      -0.512100
@<TRIPOS>BOND
     1    53    13 2
     2    18    17 2
     3    13    12 1
     4    13    14 1
     5    28     7 1
     6    12    11 1
     7    17    14 1
     8    17     1 1
     9    23     4 2
    10    14    15 2
    11    26     7 ar
    12    26     8 ar
    13    21     1 ar
    14    21     3 ar
    15     7     5 ar
    16     1    19 ar
    17     4     3 1
    18     4    22 1
    19    11    10 1
    20     8    27 ar
    21     3    20 ar
    22    15    10 1
    23    15    16 1
    24     5    22 1
    25     5     9 ar
    26    19     2 ar
    27    22     6 1
    28    20     2 ar
    29    20    25 1
    30    27     9 ar
    31     9    29 1
    32     6    25 1
    33     6    24 2
    34    25    30 1
    35     2    31 1
    36     8    32 1
    37    10    33 1
    38    10    34 1
    39    11    35 1
    40    11    36 1
    41    12    37 1
    42    12    38 1
    43    16    39 1
    44    19    40 1
    45    21    41 1
    46    26    42 1
    47    27    43 1
    48    28    44 1
    49    28    45 1
    50    28    46 1
    51    29    47 1
    52    29    48 1
    53    29    49 1
    54    30    50 1
    55    30    51 1
    56    30    52 1
@<TRIPOS>SUBSTRUCTURE
     1 94L         1 TEMP              0 ****  ****    0 ROOT
