@<TRIPOS>MOLECULE
94M
   37    39     1     0     0
SMALL
bcc


@<TRIPOS>ATOM
      1 N1           0.0000     0.0000     0.0000 nb         1 94M      -0.634000
      2 C2           1.3280     0.0000     0.0000 ca         1 94M       0.717900
      3 N2           1.9970     0.0010    -1.2130 nv         1 94M      -0.613500
      4 N3           2.0330     0.0000     1.1200 nb         1 94M      -0.630000
      5 C4           1.4230    -0.0010     2.2980 ca         1 94M       0.237800
      6 C5           0.0150    -0.0000     2.3410 ca         1 94M      -0.179200
      7 C6          -0.6850    -0.0000     1.1310 ca         1 94M       0.501300
      8 Cl6         -2.4210     0.0010     1.1140 cl         1 94M      -0.054000
      9 N7          -0.3430    -0.0020     3.6480 nc         1 94M      -0.487100
     10 C8           0.7260    -0.0020     4.3910 cd         1 94M       0.270700
     11 N9           1.8400    -0.0010     3.6050 na         1 94M       0.215000
     12 CAA          6.8590     3.6660     1.8800 c3         1 94M       0.256700
     13 CAF          4.0400     3.3670     5.3030 ca         1 94M       0.401200
     14 CAH          3.2290    -0.0020     4.0710 c3         1 94M      -0.080000
     15 NAI          3.6050     2.1260     5.2170 nb         1 94M      -0.565000
     16 CAN          4.6650     3.9750     4.2330 ca         1 94M      -0.211600
     17 CAP          4.3590     1.9490     3.0010 ca         1 94M      -0.180600
     18 CAR          3.7450     1.4140     4.1140 ca         1 94M       0.323600
     19 CAS          4.8330     3.2580     3.0520 ca         1 94M       0.143100
     20 HN2          2.4930    -0.8160    -1.5110 hn         1 94M       0.278800
     21 HN2A         2.0200     0.8310    -1.7710 hn         1 94M       0.278800
     22 H8           0.7300    -0.0000     5.4740 h5         1 94M       0.038800
     23 HAA          7.3310     4.6400     1.9070 h1         1 94M      -0.005967
     24 HAAA         7.0890     3.1800     0.9390 h1         1 94M      -0.005967
     25 HAAB         7.2300     3.0610     2.6990 h1         1 94M      -0.005967
     26 HAB          4.6530     5.8910     5.1620 hc         1 94M       0.013700
     27 HABA         4.9510     5.9200     3.4180 hc         1 94M       0.013700
     28 HABB         6.2260     5.3930     4.5250 hc         1 94M       0.013700
     29 HAC          5.5650     0.9130     1.5840 hc         1 94M       0.031700
     30 HACA         4.1270     1.6840     0.9010 hc         1 94M       0.031700
     31 HACB         3.9680     0.2000     1.8510 hc         1 94M       0.031700
     32 HAF          3.9060     3.9180     6.2270 h4         1 94M      -0.012900
     33 HAH          3.8370    -0.5870     3.3920 h1         1 94M       0.052700
     34 HAHA         3.2770    -0.4340     5.0630 h1         1 94M       0.052700
     35 CAB          5.1590     5.3940     4.3420 c3         1 94M       0.069200
     36 CAC          4.5160     1.1290     1.7460 c3         1 94M       0.021200
     37 OAM          5.4420     3.8200     1.9770 os         1 94M      -0.328900
@<TRIPOS>BOND
     1     1     2 ar  
     2     1     7 ar  
     3     2     3 1   
     4     2     4 ar  
     5     3    20 1   
     6     3    21 1   
     7     4     5 ar  
     8     5     6 ar  
     9     5    11 1   
    10     6     7 ar  
    11     6     9 1   
    12     7     8 1   
    13     9    10 2   
    14    10    11 1   
    15    10    22 1   
    16    11    14 1   
    17    12    23 1   
    18    12    24 1   
    19    12    25 1   
    20    12    37 1   
    21    13    15 ar  
    22    13    16 ar  
    23    13    32 1   
    24    14    18 1   
    25    14    33 1   
    26    14    34 1   
    27    15    18 ar  
    28    16    19 ar  
    29    16    35 1   
    30    17    18 ar  
    31    17    19 ar  
    32    17    36 1   
    33    19    37 1   
    34    26    35 1   
    35    27    35 1   
    36    28    35 1   
    37    29    36 1   
    38    30    36 1   
    39    31    36 1   
@<TRIPOS>SUBSTRUCTURE
     1 94M         1 TEMP              0 ****  ****    0 ROOT
