@<TRIPOS>MOLECULE
molecule
   37    39     1     0     0
SMALL
bcc


@<TRIPOS>ATOM
      1 N1           0.0000     0.0000     0.0000 nb         1 94M      -0.755000
      2 C2           1.3280     0.0000     0.0000 ca         1 94M       0.956900
      3 N2           1.9970     0.0010    -1.2130 nv         1 94M      -1.044500
      4 N3           2.0330     0.0000     1.1200 nb         1 94M      -0.772000
      5 C4           1.4230    -0.0010     2.2980 ca         1 94M       0.458800
      6 C5           0.0150    -0.0000     2.3410 ca         1 94M      -0.153200
      7 C6          -0.6850    -0.0000     1.1310 ca         1 94M       0.624300
      8 Cl6         -2.4210     0.0010     1.1140 cl         1 94M      -0.127000
      9 N7          -0.3430    -0.0020     3.6480 nc         1 94M      -0.574100
     10 C8           0.7260    -0.0020     4.3910 cd         1 94M       0.449700
     11 N9           1.8400    -0.0010     3.6050 na         1 94M      -0.249000
     12 CAA          6.8590     3.6660     1.8800 c3         1 94M       0.137700
     13 CAF          4.0400     3.3670     5.3030 ca         1 94M       0.420200
     14 CAH          3.2290    -0.0020     4.0710 c3         1 94M       0.009000
     15 NAI          3.6050     2.1260     5.2170 nb         1 94M      -0.684000
     16 CAN          4.6650     3.9750     4.2330 ca         1 94M      -0.207600
     17 CAP          4.3590     1.9490     3.0010 ca         1 94M      -0.183600
     18 CAR          3.7450     1.4140     4.1140 ca         1 94M       0.379600
     19 CAS          4.8330     3.2580     3.0520 ca         1 94M       0.135100
     20 HN2          2.4930    -0.8160    -1.5110 hn         1 94M       0.447300
     21 HN2A         2.0200     0.8310    -1.7710 hn         1 94M       0.447300
     22 H8           0.7300    -0.0000     5.4740 h5         1 94M       0.089800
     23 HAA          7.3310     4.6400     1.9070 h1         1 94M       0.038700
     24 HAAA         7.0890     3.1800     0.9390 h1         1 94M       0.038700
     25 HAAB         7.2300     3.0610     2.6990 h1         1 94M       0.038700
     26 HAB          4.6530     5.8910     5.1620 hc         1 94M       0.050033
     27 HABA         4.9510     5.9200     3.4180 hc         1 94M       0.050033
     28 HABB         6.2260     5.3930     4.5250 hc         1 94M       0.050033
     29 HAC          5.5650     0.9130     1.5840 hc         1 94M       0.060033
     30 HACA         4.1270     1.6840     0.9010 hc         1 94M       0.060033
     31 HACB         3.9680     0.2000     1.8510 hc         1 94M       0.060033
     32 HAF          3.9060     3.9180     6.2270 h4         1 94M       0.029100
     33 HAH          3.8370    -0.5870     3.3920 h1         1 94M       0.083700
     34 HAHA         3.2770    -0.4340     5.0630 h1         1 94M       0.083700
     35 CAB          5.1590     5.3940     4.3420 c3         1 94M      -0.043800
     36 CAC          4.5160     1.1290     1.7460 c3         1 94M      -0.055800
     37 OAM          5.4420     3.8200     1.9770 os         1 94M      -0.346900
@<TRIPOS>BOND
     1     1     2 ar
     2     1     7 ar
     3     2     3 1
     4     2     4 ar
     5     4     5 ar
     6     5     6 ar
     7     5    11 1
     8     6     7 ar
     9     6     9 1
    10     7     8 1
    11     9    10 2
    12    10    11 1
    13    11    14 1
    14    12    37 1
    15    35    16 1
    16    36    17 1
    17    13    15 ar
    18    13    16 ar
    19    14    18 1
    20    15    18 ar
    21    37    19 1
    22    16    19 ar
    23    17    18 ar
    24    17    19 ar
    25     3    20 1
    26     3    21 1
    27    10    22 1
    28    12    23 1
    29    12    24 1
    30    12    25 1
    31    35    26 1
    32    35    27 1
    33    35    28 1
    34    36    29 1
    35    36    30 1
    36    36    31 1
    37    13    32 1
    38    14    33 1
    39    14    34 1
@<TRIPOS>SUBSTRUCTURE
     1 94M         1 TEMP              0 ****  ****    0 ROOT
