@<TRIPOS>MOLECULE
molecule
   13    13     1     0     0
SMALL
bcc


@<TRIPOS>ATOM
      1 C            0.0000     0.0000     0.0000 ca         1 94N      -0.136000
      2 O            2.0590     0.0030     3.5750 oh         1 94N      -0.501100
      3 C1           1.3830     0.0000     0.0000 ca         1 94N      -0.081000
      4 C2           2.0750     0.0000     1.1960 ca         1 94N      -0.046400
      5 C4          -0.0070     0.0030     2.3950 ca         1 94N      -0.046400
      6 C5          -0.6940     0.0010     1.1960 ca         1 94N      -0.081000
      7 Br1          3.9660     0.0000     1.1950 br         1 94N      -0.070100
      8 C3           1.3810     0.0020     2.3980 ca         1 94N       0.153100
      9 Br          -0.9560     0.0050     4.0300 br         1 94N      -0.070100
     10 H1          -0.5410    -0.0010    -0.9390 ha         1 94N       0.144000
     11 H2           2.2160    -0.8860     3.8490 ho         1 94N       0.432000
     12 H3           1.9240    -0.0010    -0.9380 ha         1 94N       0.150000
     13 H4          -1.7770     0.0010     1.1930 ha         1 94N       0.150000
@<TRIPOS>BOND
     1     1     3 ar
     2     1     6 ar
     3     3     4 ar
     4     6     5 ar
     5     4     7 1
     6     4     8 ar
     7     5     8 ar
     8     5     9 1
     9     8     2 1
    10     1    10 1
    11     2    11 1
    12     3    12 1
    13     6    13 1
@<TRIPOS>SUBSTRUCTURE
     1 94N         1 TEMP              0 ****  ****    0 ROOT
