@<TRIPOS>MOLECULE
molecule
   75    78     1     0     0
SMALL
bcc


@<TRIPOS>ATOM
      1 C1           0.0000     0.0000     0.0000 c3         1 94R      -0.066400
      2 O1           3.4710     0.0870     1.4360 oh         1 94R      -0.608800
      3 C2           1.5300     0.0000     0.0000 c3         1 94R      -0.093400
      4 C3           2.0440     0.0000     1.4400 c3         1 94R       0.149100
      5 C4           1.6150    -1.2960     2.1360 c3         1 94R      -0.049200
      6 C5           0.1050    -1.4230     2.0210 c2         1 94R      -0.113400
      7 C10         -0.5090    -1.2850     0.6590 c3         1 94R      -0.013800
      8 C19         -0.0500    -2.4700    -0.1920 c3         1 94R      -0.087100
      9 C9          -2.0280    -1.2930     0.6800 c3         1 94R      -0.051700
     10 C11         -2.5610    -1.6300    -0.7100 c3         1 94R      -0.081400
     11 C12         -4.0940    -1.7280    -0.7230 c3         1 94R      -0.065400
     12 C13         -4.4830    -2.7840     0.2940 c3         1 94R      -0.063000
     13 C18         -3.7450    -4.0900    -0.0050 c3         1 94R      -0.092100
     14 C17         -5.9760    -3.0570     0.4520 c3         1 94R      -0.054700
     15 C20         -6.3930    -4.2410    -0.4220 c3         1 94R      -0.072700
     16 C22         -7.8560    -4.5910    -0.1410 c3         1 94R      -0.081400
     17 C23         -8.2370    -5.8500    -0.9220 c3         1 94R      -0.043200
     18 C24         -9.6780    -6.1960    -0.6460 c2         1 94R      -0.118400
     19 C28        -10.6180    -5.7840    -1.4600 c2         1 94R      -0.227000
     20 C25        -10.0370    -7.0130     0.5680 c3         1 94R      -0.035500
     21 C27         -9.3400    -8.3730     0.4910 c3         1 94R      -0.086100
     22 C26         -9.5850    -6.2790     1.8310 c3         1 94R      -0.086100
     23 C21         -6.2320    -3.8670    -1.8970 c3         1 94R      -0.094100
     24 C16         -6.1730    -3.4000     1.9500 c3         1 94R      -0.082400
     25 C15         -4.7850    -3.2260     2.6260 c3         1 94R      -0.077400
     26 C14         -4.0630    -2.2490     1.6890 c3         1 94R      -0.066700
     27 C8          -2.5460    -2.2740     1.7420 c3         1 94R      -0.057700
     28 C7          -2.0730    -1.7830     3.1160 c3         1 94R      -0.039200
     29 C6          -0.5790    -1.6470     3.1050 c2         1 94R      -0.170200
     30 H1          -0.3600     0.8570     0.5560 hc         1 94R       0.045200
     31 H2          -0.3600     0.0480    -1.0210 hc         1 94R       0.045200
     32 H3           3.7390     0.8760     1.8780 ho         1 94R       0.400000
     33 H4           1.8890    -0.8860    -0.5100 hc         1 94R       0.052200
     34 H5           1.8890     0.8860    -0.5100 hc         1 94R       0.052200
     35 H6           1.6270     0.8480     1.9700 h1         1 94R       0.032700
     36 H7           1.8980    -1.2580     3.1810 hc         1 94R       0.057200
     37 H8           2.0890    -2.1420     1.6540 hc         1 94R       0.057200
     38 H9          -0.5800    -3.3630     0.1160 hc         1 94R       0.038033
     39 H10          1.0150    -2.6200    -0.0600 hc         1 94R       0.038033
     40 H11         -0.2590    -2.2680    -1.2360 hc         1 94R       0.038033
     41 H12         -2.3690    -0.2990     0.9420 hc         1 94R       0.049700
     42 H13         -2.2520    -0.8550    -1.4010 hc         1 94R       0.045700
     43 H14         -2.1450    -2.5790    -1.0260 hc         1 94R       0.045700
     44 H15         -4.5270    -0.7740    -0.4460 hc         1 94R       0.044200
     45 H16         -4.4360    -2.0230    -1.7080 hc         1 94R       0.044200
     46 H17         -3.8750    -4.3470    -1.0490 hc         1 94R       0.039700
     47 H18         -2.6900    -3.9660     0.2080 hc         1 94R       0.039700
     48 H19         -4.1470    -4.8820     0.6150 hc         1 94R       0.039700
     49 H20         -6.5460    -2.1730     0.1940 hc         1 94R       0.054700
     50 H21         -5.7680    -5.0950    -0.1950 hc         1 94R       0.057700
     51 H22         -7.9880    -4.7700     0.9190 hc         1 94R       0.048700
     52 H23         -8.4900    -3.7690    -0.4500 hc         1 94R       0.048700
     53 H24         -7.6030    -6.6730    -0.6130 hc         1 94R       0.048200
     54 H25         -8.1060    -5.6710    -1.9820 hc         1 94R       0.048200
     55 H26        -11.6540    -6.0320    -1.2620 ha         1 94R       0.112000
     56 H27        -10.3590    -5.1960    -2.3320 ha         1 94R       0.112000
     57 H28        -11.1100    -7.1590     0.6010 hc         1 94R       0.052700
     58 H29         -9.3440    -8.7240    -0.5340 hc         1 94R       0.035700
     59 H30         -9.8650    -9.0840     1.1180 hc         1 94R       0.035700
     60 H31         -8.3170    -8.2750     0.8350 hc         1 94R       0.035700
     61 H32         -9.8160    -5.2250     1.7380 hc         1 94R       0.035700
     62 H33        -10.1010    -6.6880     2.6910 hc         1 94R       0.035700
     63 H34         -8.5160    -6.4050     1.9580 hc         1 94R       0.035700
     64 H35         -6.3920    -2.8030    -2.0200 hc         1 94R       0.035367
     65 H36         -6.9580    -4.4120    -2.4890 hc         1 94R       0.035367
     66 H37         -5.2330    -4.1230    -2.2280 hc         1 94R       0.035367
     67 H38         -6.8890    -2.7210     2.3940 hc         1 94R       0.043700
     68 H39         -6.5090    -4.4250     2.0540 hc         1 94R       0.043700
     69 H40         -4.8940    -2.7960     3.6150 hc         1 94R       0.044700
     70 H41         -4.2600    -4.1720     2.6690 hc         1 94R       0.044700
     71 H42         -4.4320    -1.2410     1.8340 hc         1 94R       0.057700
     72 H43         -2.1750    -3.2730     1.5480 hc         1 94R       0.068700
     73 H44         -2.5210    -0.8200     3.3290 hc         1 94R       0.049700
     74 H45         -2.3640    -2.4990     3.8740 hc         1 94R       0.049700
     75 H46         -0.0450    -1.7410     4.0430 ha         1 94R       0.120000
@<TRIPOS>BOND
     1     2     4 1
     2     4     3 1
     3     4     5 1
     4     3     1 1
     5     5     6 1
     6     1     7 1
     7     6     7 1
     8     6    29 2
     9     7     8 1
    10     7     9 1
    11    29    28 1
    12     9    10 1
    13     9    27 1
    14    10    11 1
    15    28    27 1
    16    27    26 1
    17    11    12 1
    18    26    12 1
    19    26    25 1
    20    12    13 1
    21    12    14 1
    22    25    24 1
    23    14    24 1
    24    14    15 1
    25    23    15 1
    26    15    16 1
    27    16    17 1
    28    17    18 1
    29    19    18 2
    30    18    20 1
    31    21    20 1
    32    20    22 1
    33     1    30 1
    34     1    31 1
    35     2    32 1
    36     3    33 1
    37     3    34 1
    38     4    35 1
    39     5    36 1
    40     5    37 1
    41     8    38 1
    42     8    39 1
    43     8    40 1
    44     9    41 1
    45    10    42 1
    46    10    43 1
    47    11    44 1
    48    11    45 1
    49    13    46 1
    50    13    47 1
    51    13    48 1
    52    14    49 1
    53    15    50 1
    54    16    51 1
    55    16    52 1
    56    17    53 1
    57    17    54 1
    58    19    55 1
    59    19    56 1
    60    20    57 1
    61    21    58 1
    62    21    59 1
    63    21    60 1
    64    22    61 1
    65    22    62 1
    66    22    63 1
    67    23    64 1
    68    23    65 1
    69    23    66 1
    70    24    67 1
    71    24    68 1
    72    25    69 1
    73    25    70 1
    74    26    71 1
    75    27    72 1
    76    28    73 1
    77    28    74 1
    78    29    75 1
@<TRIPOS>SUBSTRUCTURE
     1 94R         1 TEMP              0 ****  ****    0 ROOT
