@<TRIPOS>MOLECULE
94S
   43    44     1     0     0
SMALL
bcc


@<TRIPOS>ATOM
      1 C5           0.0000     0.0000     0.0000 c          1 94S       0.609100
      2 C8          -4.4930     0.0140     1.5720 cc         1 94S      -0.036300
      3 C9           1.8190     1.5360    -2.2340 ca         1 94S      -0.203500
      4 C10          2.3430     3.8390    -2.6300 ca         1 94S      -0.162300
      5 C2          -2.0630     0.0060     1.1690 cc         1 94S       0.421300
      6 C11         -4.1140     0.0160     0.2910 cd         1 94S       0.408200
      7 C15          1.2600     3.9370    -3.4910 ca         1 94S       0.207100
      8 C12          2.6190     2.6390    -2.0040 ca         1 94S       0.036000
      9 C17          3.2150     5.0410    -2.3770 c3         1 94S       0.043900
     10 C18          0.7420     1.6290    -3.0980 ca         1 94S       0.071000
     11 C19          0.4610     2.8270    -3.7260 ca         1 94S      -0.244000
     12 C22          2.5980     5.8960    -1.2680 c3         1 94S      -0.052700
     13 C24          2.6020     5.1080     0.0450 c3         1 94S       0.003400
     14 C25          3.4160     7.1770    -1.0960 c3         1 94S       0.003400
     15 N3           1.3480     0.0000     0.0000 ns         1 94S      -0.315300
     16 N6          -0.6730     0.0000     1.1680 ns         1 94S      -0.079400
     17 N7          -2.8060     0.0110     0.1070 nd         1 94S      -0.554000
     18 O13          1.5940    -1.0100    -2.2390 o          1 94S      -0.568300
     19 O14          3.5560     0.0410    -1.1020 o          1 94S      -0.568300
     20 O16         -0.6090     0.0050    -1.0520 o          1 94S      -0.601100
     21 O21          0.9850     5.1170    -4.1070 os         1 94S      -0.304900
     22 S1           2.1750     0.0070    -1.4350 sy         1 94S       1.054900
     23 S4          -3.0410     0.0050     2.5710 ss         1 94S      -0.295300
     24 H1          -4.8210     0.0210    -0.5290 h4         1 94S       0.011100
     25 H2           3.4640     2.5630    -1.3290 ha         1 94S       0.124000
     26 H3           3.2930     5.6290    -3.2840 hc         1 94S       0.025200
     27 H4           4.2020     4.7140    -2.0740 hc         1 94S       0.025200
     28 H5           0.1170     0.7630    -3.2790 ha         1 94S       0.144000
     29 H6          -0.3840     2.9010    -4.4000 ha         1 94S       0.128000
     30 H7           1.5790     6.1510    -1.5330 hc         1 94S       0.032700
     31 H8          -0.0010     4.4250    -5.7800 h1         1 94S       0.000700
     32 H9          -0.2530     6.1350    -5.4030 h1         1 94S       0.000700
     33 H10         -1.0390     4.8890    -4.4250 h1         1 94S       0.000700
     34 H11          1.7050     4.5040     0.1050 hc         1 94S       0.002700
     35 H12          3.4730     4.4660     0.0780 hc         1 94S       0.002700
     36 H13          2.6290     5.7980     0.8800 hc         1 94S       0.002700
     37 H14          2.9620     7.7960    -0.3320 hc         1 94S       0.002700
     38 H15          4.4270     6.9240    -0.8020 hc         1 94S       0.002700
     39 H16          3.4380     7.7190    -2.0340 hc         1 94S       0.002700
     40 H17          1.8480    -0.0470     0.8660 hn         1 94S       0.221500
     41 H18         -0.1720    -0.0040     2.0340 hn         1 94S       0.170500
     42 Br2         -6.2760     0.0270     2.2020 br         1 94S      -0.016100
     43 C23         -0.1460     5.1430    -4.9820 c3         1 94S       0.242700
@<TRIPOS>BOND
     1     1    15 1   
     2     1    16 1   
     3     1    20 2   
     4     2     6 2   
     5     2    23 1   
     6     2    42 1   
     7     3     8 ar  
     8     3    10 ar  
     9     3    22 1   
    10     4     7 ar  
    11     4     8 ar  
    12     4     9 1   
    13     5    16 1   
    14     5    17 2   
    15     5    23 1   
    16     6    17 1   
    17     6    24 1   
    18     7    11 ar  
    19     7    21 1   
    20     8    25 1   
    21     9    12 1   
    22     9    26 1   
    23     9    27 1   
    24    10    11 ar  
    25    10    28 1   
    26    11    29 1   
    27    12    13 1   
    28    12    14 1   
    29    12    30 1   
    30    13    34 1   
    31    13    35 1   
    32    13    36 1   
    33    14    37 1   
    34    14    38 1   
    35    14    39 1   
    36    15    22 1   
    37    15    40 1   
    38    16    41 1   
    39    18    22 2   
    40    19    22 2   
    41    21    43 1   
    42    31    43 1   
    43    32    43 1   
    44    33    43 1   
@<TRIPOS>SUBSTRUCTURE
     1 94S         1 TEMP              0 ****  ****    0 ROOT
