@<TRIPOS>MOLECULE
molecule
   43    44     1     0     0
SMALL
bcc


@<TRIPOS>ATOM
      1 C5           0.0000     0.0000     0.0000 c          1 94S       0.790100
      2 C8          -4.4930     0.0140     1.5720 cc         1 94S      -0.116300
      3 C9           1.8190     1.5360    -2.2340 ca         1 94S      -0.355500
      4 C10          2.3430     3.8390    -2.6300 ca         1 94S      -0.135300
      5 C2          -2.0630     0.0060     1.1690 cd         1 94S       0.586300
      6 C11         -4.1140     0.0160     0.2910 cc         1 94S       0.436200
      7 C15          1.2600     3.9370    -3.4910 ca         1 94S       0.197100
      8 C12          2.6190     2.6390    -2.0040 ca         1 94S       0.004000
      9 C17          3.2150     5.0410    -2.3770 c3         1 94S      -0.021100
     10 C18          0.7420     1.6290    -3.0980 ca         1 94S       0.034000
     11 C19          0.4610     2.8270    -3.7260 ca         1 94S      -0.245000
     12 C22          2.5980     5.8960    -1.2680 c3         1 94S      -0.072700
     13 C24          2.6020     5.1080     0.0450 c3         1 94S      -0.088600
     14 C25          3.4160     7.1770    -1.0960 c3         1 94S      -0.088600
     15 N3           1.3480     0.0000     0.0000 ns         1 94S      -0.661300
     16 N6          -0.6730     0.0000     1.1680 ns         1 94S      -0.533400
     17 N7          -2.8060     0.0110     0.1070 nc         1 94S      -0.681000
     18 O13          1.5940    -1.0100    -2.2390 o          1 94S      -0.615800
     19 O14          3.5560     0.0410    -1.1020 o          1 94S      -0.615800
     20 O16         -0.6090     0.0050    -1.0520 o          1 94S      -0.553100
     21 O21          0.9850     5.1170    -4.1070 os         1 94S      -0.322900
     22 S1           2.1750     0.0070    -1.4350 sy         1 94S       1.430900
     23 S4          -3.0410     0.0050     2.5710 ss         1 94S      -0.180300
     24 H1          -4.8210     0.0210    -0.5290 h4         1 94S       0.060100
     25 H2           3.4640     2.5630    -1.3290 ha         1 94S       0.150000
     26 H3           3.2930     5.6290    -3.2840 hc         1 94S       0.054700
     27 H4           4.2020     4.7140    -2.0740 hc         1 94S       0.054700
     28 H5           0.1170     0.7630    -3.2790 ha         1 94S       0.174000
     29 H6          -0.3840     2.9010    -4.4000 ha         1 94S       0.144000
     30 H7           1.5790     6.1510    -1.5330 hc         1 94S       0.058700
     31 H8          -0.0010     4.4250    -5.7800 h1         1 94S       0.046033
     32 H9          -0.2530     6.1350    -5.4030 h1         1 94S       0.046033
     33 H10         -1.0390     4.8890    -4.4250 h1         1 94S       0.046033
     34 H11          1.7050     4.5040     0.1050 hc         1 94S       0.033533
     35 H12          3.4730     4.4660     0.0780 hc         1 94S       0.033533
     36 H13          2.6290     5.7980     0.8800 hc         1 94S       0.033533
     37 H14          2.9620     7.7960    -0.3320 hc         1 94S       0.033533
     38 H15          4.4270     6.9240    -0.8020 hc         1 94S       0.033533
     39 H16          3.4380     7.7190    -2.0340 hc         1 94S       0.033533
     40 H17          1.8480    -0.0470     0.8660 hn         1 94S       0.337500
     41 H18         -0.1720    -0.0040     2.0340 hn         1 94S       0.335500
     42 Br2         -6.2760     0.0270     2.2020 br         1 94S      -0.022100
     43 C23         -0.1460     5.1430    -4.9820 c3         1 94S       0.124700
@<TRIPOS>BOND
     1    43    21 1
     2    11    10 ar
     3    11     7 ar
     4    10     3 ar
     5    17     5 2
     6    17     6 1
     7    16     5 1
     8    16     1 1
     9    21     7 1
    10    15     1 1
    11    15    22 1
    12     5    23 1
    13     6     2 2
    14     7     4 ar
    15    19    22 2
    16     1    20 2
    17     3    22 1
    18     3     8 ar
    19    22    18 2
    20     2    23 1
    21     2    42 1
    22     4     8 ar
    23     4     9 1
    24     9    12 1
    25    12    14 1
    26    12    13 1
    27     6    24 1
    28     8    25 1
    29     9    26 1
    30     9    27 1
    31    10    28 1
    32    11    29 1
    33    12    30 1
    34    43    31 1
    35    43    32 1
    36    43    33 1
    37    13    34 1
    38    13    35 1
    39    13    36 1
    40    14    37 1
    41    14    38 1
    42    14    39 1
    43    15    40 1
    44    16    41 1
@<TRIPOS>SUBSTRUCTURE
     1 94S         1 TEMP              0 ****  ****    0 ROOT
