@<TRIPOS>MOLECULE
molecule
   46    47     1     0     0
SMALL
bcc


@<TRIPOS>ATOM
      1 C2           0.0000     0.0000     0.0000 c          1 94T       0.815500
      2 C4          -0.0410     0.0010     2.3360 c          1 94T       0.709700
      3 C5           1.3740     0.0010     2.3510 cc         1 94T      -0.356200
      4 C6           2.0430     0.0000     1.1770 cd         1 94T       0.071600
      5 N1           1.3450     0.0000     0.0000 n          1 94T      -0.351000
      6 O2          -0.6000    -0.0050    -1.0580 o          1 94T      -0.659500
      7 N3          -0.6910     0.0010     1.1550 ns         1 94T      -0.566500
      8 O4          -0.6660     0.0020     3.3820 o          1 94T      -0.653500
      9 C1'          2.0700    -0.0010    -1.2730 c3         1 94T       0.298500
     10 O4'          3.0910    -1.0220    -1.2760 os         1 94T      -0.380600
     11 C2'          2.8740     1.3140    -1.4450 c3         1 94T       0.080100
     12 O2'          2.0590     2.3370    -2.0220 oh         1 94T      -0.574800
     13 C3'          3.9950     0.8830    -2.4210 c3         1 94T       0.090100
     14 O3'          3.6600     1.2490    -3.7610 oh         1 94T      -0.581800
     15 C4'          4.0540    -0.6500    -2.2760 c3         1 94T       0.115100
     16 C5'          5.4550    -1.0780    -1.8350 c3         1 94T       0.236400
     17 O5'          5.5290    -2.5050    -1.8000 os         1 94T      -0.594200
     18 PCS          6.8600    -3.3040    -1.3770 p5         1 94T       1.431800
     19 OCT          8.0210    -3.0240    -2.4580 o          1 94T      -0.833500
     20 OCU          7.3080    -2.8450    -0.0430 o          1 94T      -0.833500
     21 OCV          6.5450    -4.8810    -1.3230 os         1 94T      -0.716800
     22 PCW          7.2550    -6.1410    -0.6150 p5         1 94T       1.435800
     23 OCX          8.5940    -6.5270    -1.4220 o          1 94T      -0.837500
     24 OCY          7.6050    -5.7890     0.7800 o          1 94T      -0.837500
     25 OCZ          6.2470    -7.3960    -0.6150 os         1 94T      -0.614200
     26 CBF          6.5450    -8.6340     0.0350 c3         1 94T       0.234400
     27 CBG          5.3790    -9.6050    -0.1600 c3         1 94T      -0.096400
     28 CBH          5.6970   -10.9290     0.5360 c3         1 94T      -0.092100
     29 H1           1.9140     0.0010     3.2900 ha         1 94T       0.178000
     30 H2           3.1260     0.0000     1.1680 h4         1 94T       0.192000
     31 H3          -1.6920     0.0010     1.1370 hn         1 94T       0.350500
     32 H4           1.3910    -0.1410    -2.1050 h2         1 94T       0.123700
     33 H5           3.2920     1.6330    -0.4980 h1         1 94T       0.047700
     34 H6           2.2540     3.1630    -1.6110 ho         1 94T       0.391000
     35 H7           4.9390     1.3250    -2.1270 h1         1 94T       0.053700
     36 H8           4.3470     1.7850    -4.1210 ho         1 94T       0.398000
     37 H9           3.8020    -1.1170    -3.2200 h1         1 94T       0.086700
     38 H10          6.1870    -0.6950    -2.5360 h1         1 94T       0.033200
     39 H11          5.6590    -0.6820    -0.8470 h1         1 94T       0.033200
     40 H14          7.4440    -9.0590    -0.3930 h1         1 94T       0.021700
     41 H15          6.6960    -8.4580     1.0930 h1         1 94T       0.021700
     42 H16          4.4790    -9.1790     0.2680 hc         1 94T       0.038200
     43 H17          5.2270    -9.7800    -1.2180 hc         1 94T       0.038200
     44 H18          4.8710   -11.6170     0.3980 hc         1 94T       0.018033
     45 H19          6.5970   -11.3550     0.1090 hc         1 94T       0.018033
     46 H20          5.8480   -10.7540     1.5950 hc         1 94T       0.018033
@<TRIPOS>BOND
     1    20    18 1
     2    28    27 1
     3    17    18 1
     4    17    16 1
     5    18    19 1
     6    18    21 1
     7    27    26 1
     8    15    10 1
     9    15    16 1
    10    15    13 1
    11    10     9 1
    12     6     1 2
    13    14    13 1
    14     9     5 1
    15     9    11 1
    16     1     5 1
    17     1     7 1
    18    13    11 1
    19    21    22 1
    20    26    25 1
    21     5     4 1
    22     7     2 1
    23    24    22 1
    24    25    22 1
    25    11    12 1
    26     4     3 2
    27     2     3 1
    28     2     8 2
    29    22    23 1
    30     3    29 1
    31     4    30 1
    32     7    31 1
    33     9    32 1
    34    11    33 1
    35    12    34 1
    36    13    35 1
    37    14    36 1
    38    15    37 1
    39    16    38 1
    40    16    39 1
    41    26    40 1
    42    26    41 1
    43    27    42 1
    44    27    43 1
    45    28    44 1
    46    28    45 1
    47    28    46 1
@<TRIPOS>SUBSTRUCTURE
     1 94T         1 TEMP              0 ****  ****    0 ROOT
