@<TRIPOS>MOLECULE
94T
   46    47     1     0     0
SMALL
bcc


@<TRIPOS>ATOM
      1 C2           0.0000     0.0000     0.0000 c          1 94T       0.590500
      2 C4          -0.0410     0.0010     2.3360 c          1 94T       0.623700
      3 C5           1.3740     0.0010     2.3510 cc         1 94T      -0.335200
      4 C6           2.0430     0.0000     1.1770 cd         1 94T      -0.049400
      5 N1           1.3450     0.0000     0.0000 n          1 94T       0.069000
      6 O2          -0.6000    -0.0050    -1.0580 o          1 94T      -0.712500
      7 N3          -0.6910     0.0010     1.1550 ns         1 94T      -0.136500
      8 O4          -0.6660     0.0020     3.3820 o          1 94T      -0.697500
      9 C1'          2.0700    -0.0010    -1.2730 c3         1 94T       0.186500
     10 O4'          3.0910    -1.0220    -1.2760 os         1 94T      -0.364600
     11 C2'          2.8740     1.3140    -1.4450 c3         1 94T       0.116100
     12 O2'          2.0590     2.3370    -2.0220 oh         1 94T      -0.555800
     13 C3'          3.9950     0.8830    -2.4210 c3         1 94T       0.131100
     14 O3'          3.6600     1.2490    -3.7610 oh         1 94T      -0.564800
     15 C4'          4.0540    -0.6500    -2.2760 c3         1 94T       0.137100
     16 C5'          5.4550    -1.0780    -1.8350 c3         1 94T       0.308400
     17 O5'          5.5290    -2.5050    -1.8000 os         1 94T      -0.497200
     18 PCS          6.8600    -3.3040    -1.3770 p5         1 94T       0.948800
     19 OCT          8.0210    -3.0240    -2.4580 o          1 94T      -0.673000
     20 OCU          7.3080    -2.8450    -0.0430 o          1 94T      -0.673000
     21 OCV          6.5450    -4.8810    -1.3230 os         1 94T      -0.488800
     22 PCW          7.2550    -6.1410    -0.6150 p5         1 94T       0.951800
     23 OCX          8.5940    -6.5270    -1.4220 o          1 94T      -0.674500
     24 OCY          7.6050    -5.7890     0.7800 o          1 94T      -0.674500
     25 OCZ          6.2470    -7.3960    -0.6150 os         1 94T      -0.512200
     26 CBF          6.5450    -8.6340     0.0350 c3         1 94T       0.314400
     27 CBG          5.3790    -9.6050    -0.1600 c3         1 94T      -0.059400
     28 CBH          5.6970   -10.9290     0.5360 c3         1 94T       0.009900
     29 H1           1.9140     0.0010     3.2900 ha         1 94T       0.150000
     30 H2           3.1260     0.0000     1.1680 h4         1 94T       0.159000
     31 H3          -1.6920     0.0010     1.1370 hn         1 94T       0.194500
     32 H4           1.3910    -0.1410    -2.1050 h2         1 94T       0.085700
     33 H5           3.2920     1.6330    -0.4980 h1         1 94T       0.012700
     34 H6           2.2540     3.1630    -1.6110 ho         1 94T       0.373000
     35 H7           4.9390     1.3250    -2.1270 h1         1 94T       0.017700
     36 H8           4.3470     1.7850    -4.1210 ho         1 94T       0.381000
     37 H9           3.8020    -1.1170    -3.2200 h1         1 94T       0.044700
     38 H10          6.1870    -0.6950    -2.5360 h1         1 94T      -0.018800
     39 H11          5.6590    -0.6820    -0.8470 h1         1 94T      -0.018800
     40 H14          7.4440    -9.0590    -0.3930 h1         1 94T      -0.027300
     41 H15          6.6960    -8.4580     1.0930 h1         1 94T      -0.027300
     42 H16          4.4790    -9.1790     0.2680 hc         1 94T       0.004200
     43 H17          5.2270    -9.7800    -1.2180 hc         1 94T       0.004200
     44 H18          4.8710   -11.6170     0.3980 hc         1 94T      -0.017633
     45 H19          6.5970   -11.3550     0.1090 hc         1 94T      -0.017633
     46 H20          5.8480   -10.7540     1.5950 hc         1 94T      -0.017633
@<TRIPOS>BOND
     1     1     5 1   
     2     1     6 2   
     3     1     7 1   
     4     2     3 1   
     5     2     7 1   
     6     2     8 2   
     7     3     4 2   
     8     3    29 1   
     9     4     5 1   
    10     4    30 1   
    11     5     9 1   
    12     7    31 1   
    13     9    10 1   
    14     9    11 1   
    15     9    32 1   
    16    10    15 1   
    17    11    12 1   
    18    11    13 1   
    19    11    33 1   
    20    12    34 1   
    21    13    14 1   
    22    13    15 1   
    23    13    35 1   
    24    14    36 1   
    25    15    16 1   
    26    15    37 1   
    27    16    17 1   
    28    16    38 1   
    29    16    39 1   
    30    17    18 1   
    31    18    19 1   
    32    18    20 1   
    33    18    21 1   
    34    21    22 1   
    35    22    23 1   
    36    22    24 1   
    37    22    25 1   
    38    25    26 1   
    39    26    27 1   
    40    26    40 1   
    41    26    41 1   
    42    27    28 1   
    43    27    42 1   
    44    27    43 1   
    45    28    44 1   
    46    28    45 1   
    47    28    46 1   
@<TRIPOS>SUBSTRUCTURE
     1 94T         1 TEMP              0 ****  ****    0 ROOT
