@<TRIPOS>MOLECULE
94U
   40    42     1     0     0
SMALL
bcc


@<TRIPOS>ATOM
      1 C10          0.0000     0.0000     0.0000 cc         1 94U      -0.367900
      2 C13          0.7040    -0.0000     2.1260 cd         1 94U      -0.119400
      3 C20         -4.4560     2.6940    -7.2670 c3         1 94U      -0.026600
      4 C21         -3.1750    -0.2340    -8.1640 c3         1 94U       0.169300
      5 C22         -3.7870    -1.6360    -8.1780 c3         1 94U      -0.026600
      6 C01         -2.7330     0.3380    -5.7920 ca         1 94U       0.078600
      7 C02         -1.5710    -0.4230    -5.8440 ca         1 94U      -0.179500
      8 C03         -0.7680    -0.5340    -4.7270 ca         1 94U      -0.059500
      9 C04         -1.1210     0.1140    -3.5500 ca         1 94U      -0.158400
     10 C05         -2.2820     0.8740    -3.4980 ca         1 94U      -0.059500
     11 C06         -3.0830     0.9900    -4.6160 ca         1 94U      -0.179500
     12 N07         -0.3060     0.0020    -2.4180 ns         1 94U      -0.029100
     13 C08         -0.8580     0.0010    -1.1870 c          1 94U       0.614700
     14 O09         -2.0690     0.0010    -1.0640 o          1 94U      -0.622100
     15 N11          1.3800     0.0000     0.0000 na         1 94U       0.320100
     16 C12          1.8240     0.0000     1.3120 cc         1 94U       0.172800
     17 C14         -0.4330     0.0050     1.3060 cd         1 94U      -0.018000
     18 S15          1.2450    -0.0010     3.8020 ss         1 94U      -0.303300
     19 C16          2.8750    -0.0110     3.2920 cd         1 94U       0.479300
     20 N17          2.9590    -0.0060     2.0090 nc         1 94U      -0.530000
     21 C19         -4.7720     1.2510    -6.8690 c3         1 94U       0.169300
     22 H202        -3.3880     2.8600    -7.2040 hc         1 94U       0.009367
     23 H201        -4.7900     2.8690    -8.2820 hc         1 94U       0.009367
     24 H203        -4.9670     3.3740    -6.5960 hc         1 94U       0.009367
     25 H211        -2.0970    -0.3110    -8.2330 h1         1 94U       0.024450
     26 H212        -3.5510     0.3320    -9.0080 h1         1 94U       0.024450
     27 H221        -3.0550    -2.3470    -8.5430 hc         1 94U       0.009367
     28 H223        -4.0860    -1.9100    -7.1730 hc         1 94U       0.009367
     29 H222        -4.6540    -1.6460    -8.8280 hc         1 94U       0.009367
     30 H021        -1.2960    -0.9300    -6.7610 ha         1 94U       0.120000
     31 H031         0.1380    -1.1260    -4.7680 ha         1 94U       0.116500
     32 H051        -2.5560     1.3810    -2.5810 ha         1 94U       0.116500
     33 H061        -3.9890     1.5830    -4.5750 ha         1 94U       0.120000
     34 H071         0.6870    -0.0730    -2.5210 hn         1 94U       0.152500
     35 H111         1.9630     0.0000    -0.8130 hn         1 94U       0.110700
     36 H141        -1.4580    -0.1120     1.6370 ha         1 94U       0.147000
     37 H161         3.7270    -0.0210     3.9610 h5         1 94U       0.024100
     38 H192        -5.1710     1.2330    -5.8610 h1         1 94U       0.024450
     39 H191        -5.5040     0.8390    -7.5530 h1         1 94U       0.024450
     40 N18         -3.5480     0.4500    -6.9230 nh         1 94U      -0.386000
@<TRIPOS>BOND
     1     1    13 1   
     2     1    15 1   
     3     1    17 2   
     4     2    16 2   
     5     2    17 1   
     6     2    18 1   
     7     3    21 1   
     8     3    22 1   
     9     3    23 1   
    10     3    24 1   
    11     4     5 1   
    12     4    25 1   
    13     4    26 1   
    14     4    40 1   
    15     5    27 1   
    16     5    28 1   
    17     5    29 1   
    18     6     7 ar  
    19     6    11 ar  
    20     6    40 1   
    21     7     8 ar  
    22     7    30 1   
    23     8     9 ar  
    24     8    31 1   
    25     9    10 ar  
    26     9    12 1   
    27    10    11 ar  
    28    10    32 1   
    29    11    33 1   
    30    12    13 1   
    31    12    34 1   
    32    13    14 2   
    33    15    16 1   
    34    15    35 1   
    35    16    20 1   
    36    17    36 1   
    37    18    19 1   
    38    19    20 2   
    39    19    37 1   
    40    21    38 1   
    41    21    39 1   
    42    21    40 1   
@<TRIPOS>SUBSTRUCTURE
     1 94U         1 TEMP              0 ****  ****    0 ROOT
