@<TRIPOS>MOLECULE
molecule
   27    28     1     0     0
SMALL
bcc


@<TRIPOS>ATOM
      1 C5           0.0000     0.0000     0.0000 cc         1 94V      -0.115300
      2 C10          2.7830     0.0010     3.8620 c          1 94V       0.785100
      3 C2           1.0770     0.0010     2.2150 cd         1 94V       0.586300
      4 C4           1.3350     0.0000     0.0000 cc         1 94V       0.436200
      5 C15          6.2870    -1.7610     3.9670 ca         1 94V       0.005000
      6 C14          5.3280    -1.6920     4.9590 ca         1 94V      -0.302500
      7 C16          4.8040    -2.8540     5.4970 ca         1 94V       0.110400
      8 C17          6.7240    -2.9910     3.5120 ca         1 94V      -0.147000
      9 C18          5.2410    -4.0850     5.0400 ca         1 94V      -0.143000
     10 C19          6.2050    -4.1530     4.0530 ca         1 94V      -0.064000
     11 N3           1.8840     0.0000     1.2010 nc         1 94V      -0.679000
     12 N7           1.4730    -0.0000     3.5480 ns         1 94V      -0.532400
     13 N9           3.1670     0.0010     5.1540 ns         1 94V      -0.659300
     14 O11          3.6190     0.0000     2.9780 o          1 94V      -0.546100
     15 O12          4.8400    -0.1750     6.9590 o          1 94V      -0.604300
     16 O13          5.4500     0.8540     4.7640 o          1 94V      -0.604300
     17 S1          -0.5460    -0.0000     1.6760 ss         1 94V      -0.181300
     18 S8           4.7720    -0.1250     5.5400 sy         1 94V       1.429900
     19 Br6         -1.1110     0.0070    -1.5300 br         1 94V      -0.022100
     20 Cl20         3.5990    -2.7690     6.7440 cl         1 94V      -0.096400
     21 H1           1.9210    -0.0000    -0.9110 h4         1 94V       0.061100
     22 H3           7.4780    -3.0450     2.7360 ha         1 94V       0.144000
     23 H4           4.8330    -4.9950     5.4620 ha         1 94V       0.148000
     24 H5           6.5480    -5.1170     3.6960 ha         1 94V       0.141000
     25 H6           0.7840     0.0190     4.2740 hn         1 94V       0.336500
     26 H7           2.4860     0.1180     5.8780 hn         1 94V       0.341500
     27 H2           6.6960    -0.8510     3.5450 ha         1 94V       0.172000
@<TRIPOS>BOND
     1    20     7 1
     2    11     4 1
     3    11     3 2
     4    12     3 1
     5    12     2 1
     6     7     9 ar
     7     7     6 ar
     8     9    10 ar
     9     4     1 2
    10    13     2 1
    11    13    18 1
    12     3    17 1
    13    16    18 2
    14     2    14 2
    15     6    18 1
    16     6     5 ar
    17    18    15 2
    18    10     8 ar
    19     1    17 1
    20     1    19 1
    21     5     8 ar
    22     4    21 1
    23     5    27 1
    24     8    22 1
    25     9    23 1
    26    10    24 1
    27    12    25 1
    28    13    26 1
@<TRIPOS>SUBSTRUCTURE
     1 94V         1 TEMP              0 ****  ****    0 ROOT
