@<TRIPOS>MOLECULE
94W
   20    21     1     0     0
SMALL
bcc


@<TRIPOS>ATOM
      1 C01          0.0000     0.0000     0.0000 ca         1 94W       0.163100
      2 O02         -0.6810     0.0010    -1.1770 os         1 94W      -0.303900
      3 C03         -2.1080     0.0010    -1.1010 c3         1 94W       0.244700
      4 C04          1.3810     0.0000     0.0000 ca         1 94W      -0.105000
      5 C05          2.0820     0.0000     1.2040 ca         1 94W       0.041900
      6 C06          1.3950     0.0000     2.4220 ca         1 94W       0.024400
      7 C07         -0.0150     0.0010     2.4000 ca         1 94W       0.004000
      8 C08         -0.6930     0.0060     1.2070 ca         1 94W      -0.206000
      9 N09          2.2210    -0.0000     3.4890 nc         1 94W      -0.441100
     10 C10          3.4900    -0.0000     3.2680 cd         1 94W       0.470100
     11 N11          4.4610    -0.0000     4.2500 nv         1 94W      -0.522800
     12 S12          3.8100    -0.0010     1.5400 ss         1 94W      -0.280100
     13 H04          1.9220    -0.0000    -0.9390 ha         1 94W       0.127000
     14 H08         -1.7760     0.0150     1.2040 ha         1 94W       0.124000
     15 H031        -2.4420     0.8880    -0.5750 h1         1 94W      -0.001300
     16 H032        -2.4420    -0.8810    -0.5680 h1         1 94W      -0.001300
     17 H033        -2.5240    -0.0030    -2.1010 h1         1 94W      -0.001300
     18 H07         -0.5680     0.0060     3.3320 ha         1 94W       0.111000
     19 H111         4.8190     0.8660     4.6000 hn         1 94W       0.275800
     20 H112         4.8190    -0.8670     4.6000 hn         1 94W       0.275800
@<TRIPOS>BOND
     1     1     2 1   
     2     1     4 ar  
     3     1     8 ar  
     4     2     3 1   
     5     3    15 1   
     6     3    16 1   
     7     3    17 1   
     8     4     5 ar  
     9     4    13 1   
    10     5     6 ar  
    11     5    12 1   
    12     6     7 ar  
    13     6     9 1   
    14     7     8 ar  
    15     7    18 1   
    16     8    14 1   
    17     9    10 2   
    18    10    11 1   
    19    10    12 1   
    20    11    19 1   
    21    11    20 1   
@<TRIPOS>SUBSTRUCTURE
     1 94W         1 TEMP              0 ****  ****    0 ROOT
