@<TRIPOS>MOLECULE
molecule
   28    28     1     0     0
SMALL
bcc


@<TRIPOS>ATOM
      1 Br1          0.0000     0.0000     0.0000 br         1 94X      -0.142100
      2 C02          1.8910     0.0000     0.0000 ca         1 94X      -0.028900
      3 C03          2.5830     0.0000     1.1980 ca         1 94X      -0.115500
      4 C04          3.9660    -0.0050     1.1970 ca         1 94X      -0.110500
      5 C05          2.5830    -0.0050    -1.1980 ca         1 94X      -0.115500
      6 C06          3.9660    -0.0050    -1.1970 ca         1 94X      -0.110500
      7 C07          4.6560    -0.0110    -0.0000 ca         1 94X      -0.038300
      8 C08          6.1630    -0.0180     0.0000 c3         1 94X      -0.061100
      9 C09          6.6670    -1.4620     0.0040 c3         1 94X       0.146300
     10 O10          6.2870    -2.0960     1.2260 oh         1 94X      -0.615800
     11 C11          8.1690    -1.4700    -0.1200 c2         1 94X      -0.623200
     12 C12          8.7400    -1.8020    -1.2760 ce         1 94X       0.048600
     13 C13          7.9210    -1.9290    -2.4890 c          1 94X       0.816800
     14 O14          8.4700    -2.4060    -3.6250 o          1 94X      -0.828800
     15 O15          6.7500    -1.6060    -2.4690 o          1 94X      -0.828800
     16 C16         10.2250    -2.0470    -1.3390 c3         1 94X      -0.051900
     17 H1           2.0420     0.0050     2.1360 ha         1 94X       0.131500
     18 H2           4.5080    -0.0080     2.1350 ha         1 94X       0.155500
     19 H3           2.0410    -0.0010    -2.1360 ha         1 94X       0.131500
     20 H4           4.5080    -0.0100    -2.1350 ha         1 94X       0.155500
     21 H5           6.5260     0.4940     0.8840 hc         1 94X       0.062700
     22 H6           6.5270     0.4890    -0.8850 hc         1 94X       0.062700
     23 H7           6.2330    -1.9980    -0.8310 h1         1 94X       0.099700
     24 H8           6.4980    -3.0140     1.1820 ho         1 94X       0.403000
     25 H9           7.6150    -0.5840    -0.4050 ha         1 94X       0.325000
     26 H11         10.4100    -3.0610    -1.6730 hc         1 94X       0.044033
     27 H12         10.6570    -1.9060    -0.3560 hc         1 94X       0.044033
     28 H13         10.6770    -1.3510    -2.0350 hc         1 94X       0.044033
@<TRIPOS>BOND
     1    16    12 1
     2    12    11 2
     3    12    13 1
     4    11     9 1
     5    15    13 1
     6    13    14 1
     7     9    10 1
     8     9     8 1
     9     8     7 1
    10     4     7 ar
    11     4     3 ar
    12     7     6 ar
    13     3     2 ar
    14     6     5 ar
    15     2     5 ar
    16     2     1 1
    17     3    17 1
    18     4    18 1
    19     5    19 1
    20     6    20 1
    21     8    21 1
    22     8    22 1
    23     9    23 1
    24    10    24 1
    25    11    25 1
    26    16    26 1
    27    16    27 1
    28    16    28 1
@<TRIPOS>SUBSTRUCTURE
     1 94X         1 TEMP              0 ****  ****    0 ROOT
