@<TRIPOS>MOLECULE
molecule
   27    28     1     0     0
SMALL
bcc


@<TRIPOS>ATOM
      1 C5           0.0000     0.0000     0.0000 c          1 94Y       0.790100
      2 C8           1.8190     1.5370    -2.2350 ca         1 94Y      -0.312500
      3 C9          -4.4930     0.0140     1.5710 cc         1 94Y      -0.114300
      4 C10          2.6190     2.6390    -2.0040 ca         1 94Y      -0.017000
      5 C2          -2.0640     0.0050     1.1680 cd         1 94Y       0.581300
      6 C11         -4.1140     0.0150     0.2910 cc         1 94Y       0.434200
      7 C15          1.2590     3.9350    -3.4930 ca         1 94Y       0.084400
      8 C12          2.3400     3.8410    -2.6320 ca         1 94Y      -0.002600
      9 C17          0.7430     1.6300    -3.0970 ca         1 94Y       0.008000
     10 C18          0.4630     2.8280    -3.7270 ca         1 94Y      -0.140000
     11 N3           1.3480     0.0000     0.0000 ns         1 94Y      -0.663300
     12 N6          -0.6730     0.0000     1.1680 ns         1 94Y      -0.531400
     13 N7          -2.8060     0.0100     0.1060 nc         1 94Y      -0.680000
     14 O13          1.5950    -1.0100    -2.2380 o          1 94Y      -0.606300
     15 O14          3.5560     0.0420    -1.1010 o          1 94Y      -0.606300
     16 O16         -0.6080     0.0050    -1.0530 o          1 94Y      -0.555100
     17 S1           2.1750     0.0070    -1.4340 sy         1 94Y       1.429900
     18 S4          -3.0420     0.0060     2.5700 ss         1 94Y      -0.175300
     19 Cl20         3.3440     5.2260    -2.3420 cl         1 94Y      -0.078400
     20 Cl21         0.9080     5.4420    -4.2810 cl         1 94Y      -0.074400
     21 H1           3.4630     2.5650    -1.3290 ha         1 94Y       0.164000
     22 H2          -4.8210     0.0190    -0.5300 h4         1 94Y       0.061100
     23 H3           0.1180     0.7640    -3.2790 ha         1 94Y       0.184000
     24 H4          -0.3820     2.9010    -4.4010 ha         1 94Y       0.160000
     25 H5           1.8480    -0.0400     0.8660 hn         1 94Y       0.341500
     26 H6          -0.1730    -0.0420     2.0340 hn         1 94Y       0.337500
     27 Br1         -6.2760     0.0260     2.2010 br         1 94Y      -0.019100
@<TRIPOS>BOND
     1    13     6 1
     2    13     5 2
     3    12     5 1
     4    12     1 1
     5    10     9 ar
     6    10     7 ar
     7     9     2 ar
     8     6     3 2
     9    11     1 1
    10    11    17 1
    11     5    18 1
    12    15    17 2
    13     1    16 2
    14    20     7 1
    15     7     8 ar
    16     2    17 1
    17     2     4 ar
    18    17    14 2
    19     3    18 1
    20     3    27 1
    21     8     4 ar
    22     8    19 1
    23     4    21 1
    24     6    22 1
    25     9    23 1
    26    10    24 1
    27    11    25 1
    28    12    26 1
@<TRIPOS>SUBSTRUCTURE
     1 94Y         1 TEMP              0 ****  ****    0 ROOT
