@<TRIPOS>MOLECULE
94Y
   27    28     1     0     0
SMALL
bcc


@<TRIPOS>ATOM
      1 C5           0.0000     0.0000     0.0000 c          1 94Y       0.609100
      2 C8           1.8190     1.5370    -2.2350 ca         1 94Y      -0.156500
      3 C9          -4.4930     0.0140     1.5710 cc         1 94Y      -0.034300
      4 C10          2.6190     2.6390    -2.0040 ca         1 94Y       0.012000
      5 C2          -2.0640     0.0050     1.1680 cc         1 94Y       0.417300
      6 C11         -4.1140     0.0150     0.2910 cd         1 94Y       0.407200
      7 C15          1.2590     3.9350    -3.4930 ca         1 94Y       0.009400
      8 C12          2.3400     3.8410    -2.6320 ca         1 94Y      -0.083600
      9 C17          0.7430     1.6300    -3.0970 ca         1 94Y       0.041000
     10 C18          0.4630     2.8280    -3.7270 ca         1 94Y      -0.123000
     11 N3           1.3480     0.0000     0.0000 ns         1 94Y      -0.315300
     12 N6          -0.6730     0.0000     1.1680 ns         1 94Y      -0.077400
     13 N7          -2.8060     0.0100     0.1060 nd         1 94Y      -0.552000
     14 O13          1.5950    -1.0100    -2.2380 o          1 94Y      -0.563800
     15 O14          3.5560     0.0420    -1.1010 o          1 94Y      -0.563800
     16 O16         -0.6080     0.0050    -1.0530 o          1 94Y      -0.603100
     17 S1           2.1750     0.0070    -1.4340 sy         1 94Y       1.054900
     18 S4          -3.0420     0.0060     2.5700 ss         1 94Y      -0.291300
     19 Cl20         3.3440     5.2260    -2.3420 cl         1 94Y       0.005600
     20 Cl21         0.9080     5.4420    -4.2810 cl         1 94Y       0.006600
     21 H1           3.4630     2.5650    -1.3290 ha         1 94Y       0.131000
     22 H2          -4.8210     0.0190    -0.5300 h4         1 94Y       0.012100
     23 H3           0.1180     0.7640    -3.2790 ha         1 94Y       0.152000
     24 H4          -0.3820     2.9010    -4.4010 ha         1 94Y       0.126000
     25 H5           1.8480    -0.0400     0.8660 hn         1 94Y       0.223500
     26 H6          -0.1730    -0.0420     2.0340 hn         1 94Y       0.170500
     27 Br1         -6.2760     0.0260     2.2010 br         1 94Y      -0.013100
@<TRIPOS>BOND
     1     1    11 1   
     2     1    12 1   
     3     1    16 2   
     4     2     4 ar  
     5     2     9 ar  
     6     2    17 1   
     7     3     6 2   
     8     3    18 1   
     9     3    27 1   
    10     4     8 ar  
    11     4    21 1   
    12     5    12 1   
    13     5    13 2   
    14     5    18 1   
    15     6    13 1   
    16     6    22 1   
    17     7     8 ar  
    18     7    10 ar  
    19     7    20 1   
    20     8    19 1   
    21     9    10 ar  
    22     9    23 1   
    23    10    24 1   
    24    11    17 1   
    25    11    25 1   
    26    12    26 1   
    27    14    17 2   
    28    15    17 2   
@<TRIPOS>SUBSTRUCTURE
     1 94Y         1 TEMP              0 ****  ****    0 ROOT
