@<TRIPOS>MOLECULE
94Z
   53    55     1     0     0
SMALL
bcc


@<TRIPOS>ATOM
      1 CAG          0.0000     0.0000     0.0000 ca         1 94Z      -0.120500
      2 CAH          1.3820     0.0000     0.0000 ca         1 94Z      -0.102500
      3 CAZ          2.0760     0.0000     1.1980 ca         1 94Z       0.088900
      4 FBA          3.4270    -0.0000     1.1950 f          1 94Z      -0.124900
      5 CAY          1.3870     0.0000     2.3990 ca         1 94Z      -0.102500
      6 CAX          0.0050     0.0000     2.4040 ca         1 94Z      -0.120500
      7 CAW         -0.6930     0.0010     1.2030 ca         1 94Z       0.002600
      8 NAV         -2.0910     0.0020     1.2060 nh         1 94Z      -0.357000
      9 CAF         -2.6140     0.0020     2.5790 c3         1 94Z       0.119300
     10 CAE         -4.1350     0.1850     2.5420 c3         1 94Z       0.045000
     11 CAU         -2.6190    -1.1300     0.4340 c3         1 94Z       0.119300
     12 CAT         -4.1410    -0.9940     0.3100 c3         1 94Z       0.045000
     13 NAS         -4.7090    -0.8410     1.6580 n          1 94Z      -0.147800
     14 CAR         -5.7260    -1.6200     2.0720 c          1 94Z       0.585100
     15 OBC         -6.1870    -2.4620     1.3290 o          1 94Z      -0.656100
     16 CAQ         -6.2930    -1.4470     3.4580 c3         1 94Z      -0.089400
     17 CAP         -7.4300    -2.4480     3.6720 c3         1 94Z      -0.078400
     18 CAO         -7.9970    -2.2750     5.0590 c          1 94Z       0.571100
     19 OAD         -7.5360    -1.4330     5.8000 o          1 94Z      -0.642100
     20 NAN         -9.0150    -3.0540     5.4730 ns         1 94Z      -0.041100
     21 CAM         -9.4770    -2.9610     6.7900 ca         1 94Z      -0.068400
     22 CAL         -9.4910    -1.7330     7.4340 ca         1 94Z      -0.001000
     23 CAC         -9.9260    -4.0970     7.4520 ca         1 94Z      -0.057000
     24 CAB        -10.3840    -4.0100     8.7530 ca         1 94Z      -0.053000
     25 CAA        -10.3990    -2.7930     9.4040 ca         1 94Z      -0.111000
     26 CAK         -9.9530    -1.6450     8.7470 ca         1 94Z      -0.216600
     27 CAJ         -9.9730    -0.3390     9.4400 c          1 94Z       0.354700
     28 OAI         -9.5840     0.6600     8.8660 o          1 94Z      -0.421100
     29 NBB        -10.4190    -0.2560    10.7090 nz         1 94Z       0.199600
     30 H1          -0.5420     0.0000    -0.9380 ha         1 94Z       0.120000
     31 H2           1.9230    -0.0010    -0.9390 ha         1 94Z       0.120500
     32 H3           1.9320     0.0000     3.3350 ha         1 94Z       0.120500
     33 H4          -0.5330     0.0010     3.3440 ha         1 94Z       0.120000
     34 H5          -2.1660     0.8160     3.1350 h1         1 94Z       0.028450
     35 H6          -2.3770    -0.9420     3.0550 h1         1 94Z       0.028450
     36 H7          -4.3730     1.1700     2.1580 h1         1 94Z       0.038450
     37 H8          -4.5390     0.0710     3.5410 h1         1 94Z       0.038450
     38 H9          -2.3810    -2.0560     0.9430 h1         1 94Z       0.028450
     39 H10         -2.1760    -1.1310    -0.5550 h1         1 94Z       0.028450
     40 H11         -4.5480    -1.8820    -0.1570 h1         1 94Z       0.038450
     41 H12         -4.3790    -0.1210    -0.2850 h1         1 94Z       0.038450
     42 H13         -6.6730    -0.4390     3.5700 hc         1 94Z       0.044200
     43 H14         -5.5150    -1.6230     4.1910 hc         1 94Z       0.044200
     44 H15         -7.0510    -3.4560     3.5610 hc         1 94Z       0.053200
     45 H16         -8.2090    -2.2720     2.9400 hc         1 94Z       0.053200
     46 H17         -9.4520    -3.6880     4.8330 hn         1 94Z       0.189500
     47 H18         -9.1440    -0.8450     6.9190 ha         1 94Z       0.174000
     48 H19         -9.9170    -5.0550     6.9460 ha         1 94Z       0.128000
     49 H20        -10.7320    -4.9000     9.2640 ha         1 94Z       0.127000
     50 H21        -10.7580    -2.7290    10.4240 ha         1 94Z       0.082000
     51 H22         -9.8550    -0.8360    11.2990 hn         1 94Z       0.246133
     52 H23        -11.3700    -0.5650    10.7490 hn         1 94Z       0.246133
     53 HBB3       -10.3620     0.6930    11.0210 hn         1 94Z       0.246133
@<TRIPOS>BOND
     1     1     2 ar  
     2     1     7 ar  
     3     1    30 1   
     4     2     3 ar  
     5     2    31 1   
     6     3     4 1   
     7     3     5 ar  
     8     5     6 ar  
     9     5    32 1   
    10     6     7 ar  
    11     6    33 1   
    12     7     8 1   
    13     8     9 1   
    14     8    11 1   
    15     9    10 1   
    16     9    34 1   
    17     9    35 1   
    18    10    13 1   
    19    10    36 1   
    20    10    37 1   
    21    11    12 1   
    22    11    38 1   
    23    11    39 1   
    24    12    13 1   
    25    12    40 1   
    26    12    41 1   
    27    13    14 1   
    28    14    15 2   
    29    14    16 1   
    30    16    17 1   
    31    16    42 1   
    32    16    43 1   
    33    17    18 1   
    34    17    44 1   
    35    17    45 1   
    36    18    19 2   
    37    18    20 1   
    38    20    21 1   
    39    20    46 1   
    40    21    22 ar  
    41    21    23 ar  
    42    22    26 ar  
    43    22    47 1   
    44    23    24 ar  
    45    23    48 1   
    46    24    25 ar  
    47    24    49 1   
    48    25    26 ar  
    49    25    50 1   
    50    26    27 1   
    51    27    28 2   
    52    27    29 1   
    53    29    51 1   
    54    29    52 1   
    55    29    53 1   
@<TRIPOS>SUBSTRUCTURE
     1 94Z         1 TEMP              0 ****  ****    0 ROOT
