@<TRIPOS>MOLECULE
950
   44    46     1     0     0
SMALL
bcc


@<TRIPOS>ATOM
      1 C1         -0.0620   -0.0410    0.0040 ca        1 950     -0.303900
      2 C2          1.3080    0.3300   -0.0330 ca        1 950      0.126900
      3 F2          1.9190    0.5790   -1.2210 f         1 950     -0.160900
      4 C3          2.0610    0.4890    1.1430 ca        1 950     -0.186000
      5 C4          1.4260    0.2510    2.3550 ca        1 950      0.037000
      6 C5          0.0010   -0.1480    2.4200 ca        1 950     -0.002000
      7 C6         -0.7080   -0.2880    1.2340 ca        1 950     -0.121000
      8 C7         -0.8550   -0.1760   -1.2250 ce        1 950      0.533400
      9 N1         -2.1470    0.2500   -1.2190 nh        1 950     -0.492600
     10 N2         -0.3030   -0.7350   -2.3340 nh        1 950     -0.476700
     11 N3          1.8520    0.3010    3.6640 na        1 950     -0.283600
     12 N4         -0.3880   -0.3170    3.7360 nc        1 950     -0.325600
     13 C8          0.7310   -0.0570    4.5080 cc        1 950      0.320500
     14 C1'         0.8510   -0.1030    5.9150 cd        1 950     -0.329200
     15 C2'         1.9720    0.4940    6.5700 cd        1 950     -0.075000
     16 C3'         2.1090    0.4990    7.9230 cc        1 950     -0.198000
     17 C4'         1.1140   -0.1020    8.7530 cc        1 950     -0.185000
     18 C5'         0.0290   -0.6890    8.1800 cd        1 950     -0.002100
     19 C6'        -0.1780   -0.7620    6.7070 c         1 950      0.600500
     20 O6'        -1.1550   -1.3810    6.2480 o         1 950     -0.578100
     21 O5'        -1.0100   -1.2870    8.8670 os        1 950     -0.304900
     22 C10        -0.8920   -1.2790   10.2920 c3        1 950      0.126400
     23 C20        -2.1340   -1.9880   10.8290 c3        1 950     -0.070700
     24 C30        -2.0620   -3.4740   10.5510 c3        1 950     -0.090100
     25 C40        -2.2710   -1.7170   12.3110 c3        1 950     -0.090100
     26 HC3         3.1140    0.7920    1.0790 ha        1 950      0.157000
     27 HC6        -1.7510   -0.6320    1.2780 ha        1 950      0.148000
     28 HH11       -2.7660    0.1090   -1.9810 hn        1 950      0.313950
     29 HH12       -2.5140    0.6310   -0.3710 hn        1 950      0.313950
     30 HH21        0.6640   -0.9810   -2.3060 hn        1 950      0.313950
     31 HH22       -0.7770   -0.7860   -3.2050 hn        1 950      0.313950
     32 HN3         2.7630    0.5070    3.9760 hn        1 950      0.309700
     33 HC2'        2.7470    0.9980    5.9730 ha        1 950      0.086000
     34 HC3'        2.9740    0.9690    8.4080 ha        1 950      0.114000
     35 HC4'        1.2580   -0.0650    9.8410 ha        1 950      0.120000
     36 H10A        0.0420   -1.8180   10.6000 h1        1 950      0.031200
     37 H10B       -0.8520   -0.2200   10.6600 h1        1 950      0.031200
     38 H20        -3.0310   -1.5680   10.2910 hc        1 950      0.067700
     39 H30A       -1.9150   -3.6450    9.4570 hc        1 950      0.034533
     40 H30B       -3.0060   -3.9740   10.8730 hc        1 950      0.034533
     41 H30C       -1.2090   -3.9370   11.1030 hc        1 950      0.034533
     42 H40A       -3.1690   -2.2440   12.7150 hc        1 950      0.034533
     43 H40B       -2.3850   -0.6230   12.5010 hc        1 950      0.034533
     44 H40C       -1.3710   -2.0800   12.8630 hc        1 950      0.034533
@<TRIPOS>BOND
     1    1    2 ar  
     2    1    7 ar  
     3    1    8 1   
     4    2    3 1   
     5    2    4 ar  
     6    4    5 ar  
     7    4   26 1   
     8    5    6 ar  
     9    5   11 2   
    10    6    7 ar  
    11    6   12 2   
    12    7   27 1   
    13    8    9 2   
    14    8   10 1   
    15    9   28 1   
    16    9   29 1   
    17   10   30 1   
    18   10   31 1   
    19   11   13 1   
    20   11   32 1   
    21   12   13 1   
    22   13   14 2   
    23   14   15 1   
    24   14   19 1   
    25   15   16 2   
    26   15   33 1   
    27   16   17 1   
    28   16   34 1   
    29   17   18 2   
    30   17   35 1   
    31   18   19 1   
    32   18   21 1   
    33   19   20 2   
    34   21   22 1   
    35   22   23 1   
    36   22   36 1   
    37   22   37 1   
    38   23   24 1   
    39   23   25 1   
    40   23   38 1   
    41   24   39 1   
    42   24   40 1   
    43   24   41 1   
    44   25   42 1   
    45   25   43 1   
    46   25   44 1   
@<TRIPOS>SUBSTRUCTURE
     1 950         1 TEMP              0 ****  ****    0 ROOT
