@<TRIPOS>MOLECULE
molecule
   45    47     1     0     0
SMALL
bcc


@<TRIPOS>ATOM
      1 C1           0.0000     0.0000     0.0000 ca         1 950      -0.179900
      2 C2           1.4020     0.0000     0.0000 ca         1 950       0.192900
      3 F2           2.0750    -0.0000    -1.1710 f          1 950      -0.120900
      4 C3           2.0970     0.0000     1.1910 ca         1 950      -0.178000
      5 C4           1.4090     0.0010     2.3970 ca         1 950       0.028000
      6 C5          -0.0000     0.0010     2.4090 ca         1 950      -0.024000
      7 C6          -0.7000     0.0010     1.2030 ca         1 950      -0.104000
      8 C7          -0.7360    -0.0000    -1.2800 ce         1 950       0.049800
      9 N1          -1.6290     0.9560    -1.5350 nz         1 950      -0.667600
     10 N2          -0.5080    -0.9560    -2.1800 nv         1 950      -0.484100
     11 N3           1.8040     0.0010     3.7180 na         1 950      -0.222600
     12 N4          -0.3900    -0.0040     3.7090 nc         1 950      -0.265600
     13 C8           0.6670     0.0020     4.4840 cc         1 950       0.195500
     14 C1'          0.6380     0.0020     5.9620 cd         1 950      -0.009000
     15 C2'          1.5480     0.7780     6.6810 cd         1 950      -0.166000
     16 C3'          1.5170     0.7760     8.0600 cc         1 950      -0.005000
     17 C4'          0.5860     0.0080     8.7360 cc         1 950      -0.257000
     18 C5'         -0.3240    -0.7670     8.0350 cd         1 950       0.161100
     19 C6'         -0.3010    -0.7790     6.6450 c          1 950       0.416100
     20 O6'         -1.1910    -1.5380     5.9540 o          1 950      -0.443100
     21 O5'         -1.2360    -1.5200     8.7070 os         1 950      -0.219900
     22 C10         -1.0040    -1.3030    10.1000 c3         1 950       0.098400
     23 C20         -2.0030    -2.1260    10.9170 c3         1 950      -0.078700
     24 C30         -1.7420    -3.6160    10.6900 c3         1 950      -0.090100
     25 C40         -1.8400    -1.7990    12.4030 c3         1 950      -0.090100
     26 HC3          3.1800     0.0000     1.1850 ha         1 950       0.164000
     27 HC6         -1.7830     0.0010     1.2020 ha         1 950       0.150000
     28 HH11        -1.5180     1.2730    -2.4780 hn         1 950       0.434800
     29 HH12        -2.5530     0.5910    -1.4120 hn         1 950       0.434800
     30 HH21        -1.0070    -0.9560    -3.0470 hn         1 950       0.302700
     31 HH22         0.1620    -1.6740    -1.9880 hn         1 950       0.302700
     32 HN3          2.7460     0.0040     4.0560 hn         1 950       0.321700
     33 HC2'         2.2790     1.3810     6.1560 ha         1 950       0.147000
     34 HC3'         2.2250     1.3790     8.6160 ha         1 950       0.158000
     35 HC4'         0.5680     0.0130     9.8190 ha         1 950       0.171000
     36 H10A        -1.1310    -0.2510    10.3280 h1         1 950       0.054200
     37 H10B         0.0050    -1.6080    10.3510 h1         1 950       0.054200
     38 H20         -3.0110    -1.8840    10.6030 hc         1 950       0.071700
     39 H30A        -2.2490    -4.1910    11.4550 hc         1 950       0.044033
     40 H30B        -2.1150    -3.9030     9.7150 hc         1 950       0.044033
     41 H30C        -0.6770    -3.8080    10.7410 hc         1 950       0.044033
     42 H40A        -2.5680    -2.3580    12.9770 hc         1 950       0.044033
     43 H40B        -0.8410    -2.0700    12.7240 hc         1 950       0.044033
     44 H40C        -1.9940    -0.7380    12.5580 hc         1 950       0.044033
     45 H13         -1.4830     1.7240    -0.9100 hn         1 950       0.434800
@<TRIPOS>BOND
     1     1     2 ar
     2     1     7 ar
     3     1     8 1
     4     2     3 1
     5     2     4 ar
     6     4     5 ar
     7     4    26 1
     8     5     6 ar
     9     5    11 2
    10     6     7 ar
    11     6    12 2
    12     7    27 1
    13     8     9 1
    14     8    10 2
    15     9    28 1
    16     9    29 1
    17    10    30 1
    18    10    31 1
    19    11    13 1
    20    11    32 1
    21    12    13 1
    22    13    14 2
    23    14    15 1
    24    14    19 1
    25    15    16 2
    26    15    33 1
    27    16    17 1
    28    16    34 1
    29    17    18 2
    30    17    35 1
    31    18    19 1
    32    18    21 1
    33    19    20 2
    34    21    22 1
    35    22    23 1
    36    22    36 1
    37    22    37 1
    38    23    24 1
    39    23    25 1
    40    23    38 1
    41    24    39 1
    42    24    40 1
    43    24    41 1
    44    25    42 1
    45    25    43 1
    46    25    44 1
    47    45     9 1
@<TRIPOS>SUBSTRUCTURE
     1 950         1 TEMP              0 ****  ****    0 ROOT
