@<TRIPOS>MOLECULE
951
   36    38     1     0     0
SMALL
bcc


@<TRIPOS>ATOM
      1 CAA        -0.0900    0.0010    0.0710 cc        1 951      0.242200
      2 CAB         7.7100   -0.0610    0.5690 ca        1 951     -0.160600
      3 OAC         1.3100   -0.0870    0.0270 os        1 951     -0.318800
      4 CAD        -0.8170    0.0670   -1.1750 ca        1 951     -0.090500
      5 CAE         8.1260   -0.0810    2.0350 c         1 951      0.913200
      6 CAF        -0.5240   -0.0310    1.3890 cd        1 951     -0.223300
      7 CAG         1.7420   -0.1680    1.3520 cc        1 951      0.311400
      8 NAH         4.0790   -0.2540    0.7210 n2        1 951     -0.345400
      9 CAI         0.6480   -0.1340    2.2130 cd        1 951     -0.313300
     10 CAJ         3.1450   -0.2760    1.6560 ce        1 951      0.147200
     11 CAK         6.3780   -0.1990    0.0960 ca        1 951      0.168600
     12 CAL        -0.4970    0.9520   -2.2190 ca        1 951      0.038400
     13 OAM         9.3610   -0.1360    2.2870 o         1 951     -0.826800
     14 NAN         5.3330   -0.4390    1.0320 nu        1 951     -0.421700
     15 OAO         7.2450   -0.0300    2.9480 o         1 951     -0.826800
     16 ClAP        0.7900    2.0510   -2.0990 cl        1 951     -0.065400
     17 CAQ         8.7320    0.1110   -0.3680 ca        1 951     -0.089000
     18 CAR        -1.9230   -0.7870   -1.3320 ca        1 951     -0.111000
     19 CAS         6.1230   -0.1480   -1.2930 ca        1 951     -0.171000
     20 CAT        -1.2590    0.9610   -3.3960 ca        1 951     -0.135000
     21 CAU         8.4760    0.1620   -1.7360 ca        1 951     -0.181000
     22 CAV        -2.6810   -0.7680   -2.4980 ca        1 951     -0.139000
     23 CAW         7.1670    0.0340   -2.1930 ca        1 951     -0.134000
     24 CAX        -2.3450    0.1030   -3.5340 ca        1 951     -0.127000
     25 HAF        -1.5490    0.0230    1.7410 ha        1 951      0.147000
     26 HAI         0.6700   -0.1730    3.2970 ha        1 951      0.156000
     27 HAJ         3.3460   -0.3770    2.7430 h4        1 951      0.010800
     28 HNAN        5.6440   -0.4260    2.0110 hn        1 951      0.489800
     29 HAQ         9.7630    0.2050    0.0170 ha        1 951      0.159000
     30 HAR        -2.1790   -1.4800   -0.5150 ha        1 951      0.141000
     31 HAS         5.0980   -0.2490   -1.6800 ha        1 951      0.138000
     32 HAT        -0.9950    1.6500   -4.2120 ha        1 951      0.142000
     33 HAU         9.3000    0.3010   -2.4480 ha        1 951      0.110000
     34 HAV        -3.5410   -1.4460   -2.6040 ha        1 951      0.128000
     35 HAW         6.9510    0.0740   -3.2700 ha        1 951      0.108000
     36 HAX        -2.9380    0.1140   -4.4600 ha        1 951      0.128000
@<TRIPOS>BOND
     1    1    3 1   
     2    1    4 1   
     3    1    6 2   
     4    2    5 1   
     5    2   11 ar  
     6    2   17 ar  
     7    3    7 1   
     8    4   12 ar  
     9    4   18 ar  
    10    5   13 1   
    11    5   15 1   
    12    6    9 1   
    13    6   25 1   
    14    7    9 2   
    15    7   10 1   
    16    8   10 2   
    17    8   14 1   
    18    9   26 1   
    19   10   27 1   
    20   11   14 1   
    21   11   19 ar  
    22   12   16 1   
    23   12   20 ar  
    24   14   28 1   
    25   17   21 ar  
    26   17   29 1   
    27   18   22 ar  
    28   18   30 1   
    29   19   23 ar  
    30   19   31 1   
    31   20   24 ar  
    32   20   32 1   
    33   21   23 ar  
    34   21   33 1   
    35   22   24 ar  
    36   22   34 1   
    37   23   35 1   
    38   24   36 1   
@<TRIPOS>SUBSTRUCTURE
     1 951         1 TEMP              0 ****  ****    0 ROOT
