@<TRIPOS>MOLECULE
molecule
   54    57     1     0     0
SMALL
bcc


@<TRIPOS>ATOM
      1 O2           0.0000     0.0000     0.0000 o          1 952      -0.619500
      2 C22          1.2170     0.0000     0.0000 c          1 952       0.708700
      3 C1           1.9320     0.0000     1.2230 cc         1 952      -0.280400
      4 C            1.1960    -0.0020     2.5370 c3         1 952      -0.012900
      5 N2           1.8980    -0.0040    -1.1640 ns         1 952      -0.560500
      6 C21          3.2440    -0.0040    -1.1640 c          1 952       0.810500
      7 O1           3.8430    -0.0080    -2.2210 o          1 952      -0.663500
      8 N            3.9340     0.0010    -0.0090 n          1 952      -0.362000
      9 C2           3.2820    -0.0010     1.1940 cd         1 952       0.032600
     10 C3           5.3990     0.0010    -0.0390 c3         1 952       0.125700
     11 C7           5.8940     1.2470    -0.7760 c3         1 952       0.140800
     12 N1           7.3620     1.2370    -0.8250 n3         1 952      -0.726600
     13 C6           7.8610     0.0710    -1.5640 c3         1 952       0.152800
     14 C5           7.4240    -1.2110    -0.8510 c3         1 952      -0.074400
     15 C4           5.8950    -1.2490    -0.7720 c3         1 952      -0.106400
     16 C8           7.8780     2.4860    -1.4030 c3         1 952       0.213100
     17 C9           9.3720     2.5480    -1.2150 ca         1 952      -0.049300
     18 C14         10.2120     2.0240    -2.1800 ca         1 952      -0.163000
     19 C13         11.5830     2.0790    -2.0110 ca         1 952      -0.094000
     20 C12         12.1170     2.6560    -0.8760 ca         1 952      -0.207000
     21 C11         11.2760     3.1820     0.0960 ca         1 952       0.137100
     22 C10          9.9010     3.1310    -0.0800 ca         1 952      -0.135000
     23 O           11.7990     3.7500     1.2130 os         1 952      -0.250200
     24 C15         13.1520     3.7940     1.3340 ca         1 952       0.099100
     25 C20         13.8600     4.8830     0.8450 ca         1 952      -0.136500
     26 C19         15.2340     4.9240     0.9690 ca         1 952      -0.120500
     27 C18         15.9060     3.8810     1.5790 ca         1 952      -0.129000
     28 C17         15.2040     2.7940     2.0660 ca         1 952      -0.120500
     29 C16         13.8280     2.7510     1.9510 ca         1 952      -0.136500
     30 H2           0.5820     0.8870     2.6080 hc         1 952       0.048033
     31 H1           1.9100    -0.0140     3.3510 hc         1 952       0.048033
     32 H3           0.5660    -0.8820     2.5960 hc         1 952       0.048033
     33 H24          1.3990    -0.0070    -2.0320 hn         1 952       0.362500
     34 H4           3.8450     0.0010     2.1190 h4         1 952       0.167000
     35 H            5.7860     0.0030     0.9720 h1         1 952       0.078700
     36 H12          5.5000     1.2490    -1.7850 h1         1 952       0.057700
     37 H11          5.5580     2.1330    -0.2500 h1         1 952       0.057700
     38 H9           7.4550     0.0800    -2.5680 h1         1 952       0.045700
     39 H10          8.9430     0.1080    -1.6070 h1         1 952       0.045700
     40 H8           7.8380    -1.2250     0.1500 hc         1 952       0.051700
     41 H7           7.7780    -2.0710    -1.4070 hc         1 952       0.051700
     42 H6           5.4820    -1.2690    -1.7730 hc         1 952       0.065200
     43 H5           5.5840    -2.1330    -0.2280 hc         1 952       0.065200
     44 H14          7.6460     2.5180    -2.4610 h1         1 952       0.044700
     45 H13          7.4170     3.3310    -0.9060 h1         1 952       0.044700
     46 H18          9.7950     1.5710    -3.0720 ha         1 952       0.131000
     47 H17         12.2380     1.6690    -2.7690 ha         1 952       0.132000
     48 H16         13.1920     2.6970    -0.7430 ha         1 952       0.144000
     49 H15          9.2430     3.5400     0.6770 ha         1 952       0.147000
     50 H23         13.3340     5.7010     0.3670 ha         1 952       0.145000
     51 H22         15.7870     5.7740     0.5880 ha         1 952       0.135000
     52 H21         16.9850     3.9140     1.6730 ha         1 952       0.133000
     53 H20         15.7330     1.9790     2.5460 ha         1 952       0.135000
     54 H19         13.2790     1.8990     2.3330 ha         1 952       0.145000
@<TRIPOS>BOND
     1    27    26 ar
     2    27    28 ar
     3    26    25 ar
     4    28    29 ar
     5    25    24 ar
     6     1     2 2
     7    29    24 ar
     8    24    23 1
     9     5     2 1
    10     5     6 1
    11     2     3 1
    12    20    19 ar
    13    20    21 ar
    14     7     6 2
    15    23    21 1
    16     6     8 1
    17    19    18 ar
    18    21    22 ar
    19     3     4 1
    20     3     9 2
    21     8     9 1
    22     8    10 1
    23    18    17 ar
    24    22    17 ar
    25    17    16 1
    26    10    11 1
    27    10    15 1
    28    11    12 1
    29    12    16 1
    30    12    13 1
    31    15    14 1
    32    13    14 1
    33     4    30 1
    34     4    31 1
    35     4    32 1
    36     5    33 1
    37     9    34 1
    38    10    35 1
    39    11    36 1
    40    11    37 1
    41    13    38 1
    42    13    39 1
    43    14    40 1
    44    14    41 1
    45    15    42 1
    46    15    43 1
    47    16    44 1
    48    16    45 1
    49    18    46 1
    50    19    47 1
    51    20    48 1
    52    22    49 1
    53    25    50 1
    54    26    51 1
    55    27    52 1
    56    28    53 1
    57    29    54 1
@<TRIPOS>SUBSTRUCTURE
     1 952         1 TEMP              0 ****  ****    0 ROOT
