@<TRIPOS>MOLECULE
952
   54    57     1     0     0
SMALL
bcc


@<TRIPOS>ATOM
      1 O2           0.0000     0.0000     0.0000 o          1 952      -0.657500
      2 C22          1.2170     0.0000     0.0000 c          1 952       0.619700
      3 C1           1.9320     0.0000     1.2230 cc         1 952      -0.280400
      4 C            1.1960    -0.0020     2.5370 c3         1 952       0.102100
      5 N2           1.8980    -0.0040    -1.1640 ns         1 952      -0.128500
      6 C21          3.2440    -0.0040    -1.1640 c          1 952       0.589500
      7 O1           3.8430    -0.0080    -2.2210 o          1 952      -0.712500
      8 N            3.9340     0.0010    -0.0090 n          1 952       0.058000
      9 C2           3.2820    -0.0010     1.1940 cd         1 952      -0.099400
     10 C3           5.3990     0.0010    -0.0390 c3         1 952       0.020700
     11 C7           5.8940     1.2470    -0.7760 c3         1 952       0.116800
     12 N1           7.3620     1.2370    -0.8250 n3         1 952      -0.529600
     13 C6           7.8610     0.0710    -1.5640 c3         1 952       0.130800
     14 C5           7.4240    -1.2110    -0.8510 c3         1 952      -0.012400
     15 C4           5.8950    -1.2490    -0.7720 c3         1 952      -0.066400
     16 C8           7.8780     2.4860    -1.4030 c3         1 952       0.211100
     17 C9           9.3720     2.5480    -1.2150 ca         1 952      -0.054300
     18 C14         10.2120     2.0240    -2.1800 ca         1 952      -0.144000
     19 C13         11.5830     2.0790    -2.0110 ca         1 952      -0.058000
     20 C12         12.1170     2.6560    -0.8760 ca         1 952      -0.200000
     21 C11         11.2760     3.1820     0.0960 ca         1 952       0.146100
     22 C10          9.9010     3.1310    -0.0800 ca         1 952      -0.121000
     23 O           11.7990     3.7500     1.2130 os         1 952      -0.222200
     24 C15         13.1520     3.7940     1.3340 ca         1 952       0.103100
     25 C20         13.8600     4.8830     0.8450 ca         1 952      -0.117000
     26 C19         15.2340     4.9240     0.9690 ca         1 952      -0.088500
     27 C18         15.9060     3.8810     1.5790 ca         1 952      -0.105000
     28 C17         15.2040     2.7940     2.0660 ca         1 952      -0.088500
     29 C16         13.8280     2.7510     1.9510 ca         1 952      -0.117000
     30 H2           0.5820     0.8870     2.6080 hc         1 952       0.010700
     31 H1           1.9100    -0.0140     3.3510 hc         1 952       0.010700
     32 H3           0.5660    -0.8820     2.5960 hc         1 952       0.010700
     33 H24          1.3990    -0.0070    -2.0320 hn         1 952       0.206500
     34 H4           3.8450     0.0010     2.1190 h4         1 952       0.139000
     35 H            5.7860     0.0030     0.9720 h1         1 952       0.050700
     36 H12          5.5000     1.2490    -1.7850 h1         1 952       0.035200
     37 H11          5.5580     2.1330    -0.2500 h1         1 952       0.035200
     38 H9           7.4550     0.0800    -2.5680 h1         1 952       0.023200
     39 H10          8.9430     0.1080    -1.6070 h1         1 952       0.023200
     40 H8           7.8380    -1.2250     0.1500 hc         1 952       0.020200
     41 H7           7.7780    -2.0710    -1.4070 hc         1 952       0.020200
     42 H6           5.4820    -1.2690    -1.7730 hc         1 952       0.040200
     43 H5           5.5840    -2.1330    -0.2280 hc         1 952       0.040200
     44 H14          7.6460     2.5180    -2.4610 h1         1 952       0.015200
     45 H13          7.4170     3.3310    -0.9060 h1         1 952       0.015200
     46 H18          9.7950     1.5710    -3.0720 ha         1 952       0.110000
     47 H17         12.2380     1.6690    -2.7690 ha         1 952       0.102000
     48 H16         13.1920     2.6970    -0.7430 ha         1 952       0.125000
     49 H15          9.2430     3.5400     0.6770 ha         1 952       0.121000
     50 H23         13.3340     5.7010     0.3670 ha         1 952       0.117000
     51 H22         15.7870     5.7740     0.5880 ha         1 952       0.105500
     52 H21         16.9850     3.9140     1.6730 ha         1 952       0.105000
     53 H20         15.7330     1.9790     2.5460 ha         1 952       0.105500
     54 H19         13.2790     1.8990     2.3330 ha         1 952       0.117000
@<TRIPOS>BOND
     1     1     2 2   
     2     2     3 1   
     3     2     5 1   
     4     3     4 1   
     5     3     9 2   
     6     4    30 1   
     7     4    31 1   
     8     4    32 1   
     9     5     6 1   
    10     5    33 1   
    11     6     7 2   
    12     6     8 1   
    13     8     9 1   
    14     8    10 1   
    15     9    34 1   
    16    10    11 1   
    17    10    15 1   
    18    10    35 1   
    19    11    12 1   
    20    11    36 1   
    21    11    37 1   
    22    12    13 1   
    23    12    16 1   
    24    13    14 1   
    25    13    38 1   
    26    13    39 1   
    27    14    15 1   
    28    14    40 1   
    29    14    41 1   
    30    15    42 1   
    31    15    43 1   
    32    16    17 1   
    33    16    44 1   
    34    16    45 1   
    35    17    18 ar  
    36    17    22 ar  
    37    18    19 ar  
    38    18    46 1   
    39    19    20 ar  
    40    19    47 1   
    41    20    21 ar  
    42    20    48 1   
    43    21    22 ar  
    44    21    23 1   
    45    22    49 1   
    46    23    24 1   
    47    24    25 ar  
    48    24    29 ar  
    49    25    26 ar  
    50    25    50 1   
    51    26    27 ar  
    52    26    51 1   
    53    27    28 ar  
    54    27    52 1   
    55    28    29 ar  
    56    28    53 1   
    57    29    54 1   
@<TRIPOS>SUBSTRUCTURE
     1 952         1 TEMP              0 ****  ****    0 ROOT
