@<TRIPOS>MOLECULE
molecule
   38    40     1     0     0
SMALL
bcc


@<TRIPOS>ATOM
      1 Cl           0.0000     0.0000     0.0000 cl         1 953      -0.087400
      2 C25          1.7360     0.0000     0.0000 ca         1 953       0.090400
      3 C24          2.4280     0.0000     1.1950 ca         1 953      -0.117000
      4 C23          3.8120    -0.0010     1.1960 ca         1 953      -0.040000
      5 C18          4.5120    -0.0010     0.0030 ca         1 953      -0.176300
      6 C19          6.0190    -0.0030     0.0140 c3         1 953       0.678200
      7 F22          6.4740    -0.0030     1.3370 f          1 953      -0.212633
      8 F21          6.4890    -1.1450    -0.6410 f          1 953      -0.212633
      9 F20          6.4920     1.1390    -0.6410 f          1 953      -0.212633
     10 C17          3.8340    -0.0020    -1.1990 ca         1 953      -0.045000
     11 C16          2.4370    -0.0070    -1.2090 ca         1 953      -0.086000
     12 C15          1.7050    -0.0130    -2.4910 cc         1 953       0.094700
     13 N1           1.7100    -1.0150    -3.4120 na         1 953      -0.112100
     14 C11          0.8800     1.0040    -2.9700 cd         1 953      -0.300600
     15 C12          0.5780     2.2770    -2.2970 c          1 953       0.539700
     16 N14         -0.2420     3.1710    -2.8840 nz         1 953      -0.671400
     17 O13          1.0700     2.5230    -1.2120 o          1 953      -0.439100
     18 C10          0.3890     0.5780    -4.2250 cd         1 953      -0.147000
     19 C2           0.9100    -0.6540    -4.4710 cc         1 953      -0.125800
     20 C3           0.6550    -1.4710    -5.6730 ca         1 953       0.523800
     21 C9           1.2480    -2.7330    -5.8140 ca         1 953      -0.385600
     22 C8           0.9780    -3.4610    -6.9580 ca         1 953       0.491200
     23 N7           0.1760    -2.9490    -7.8790 nb         1 953      -0.721000
     24 C5          -0.3720    -1.7520    -7.7200 ca         1 953       0.955900
     25 N4          -0.1470    -1.0220    -6.6400 nb         1 953      -0.752000
     26 N6          -1.2040    -1.2550    -8.7080 nv         1 953      -1.058500
     27 H24          1.8870    -0.0000     2.1330 ha         1 953       0.171000
     28 H23          4.3490    -0.0010     2.1360 ha         1 953       0.176000
     29 H17          4.3840    -0.0040    -2.1320 ha         1 953       0.158000
     30 H1           2.2150    -1.8750    -3.3320 hn         1 953       0.333700
     31 H10         -0.1820     1.1790    -4.9230 ha         1 953       0.167000
     32 H141         0.1550     3.4680    -3.7530 hn         1 953       0.476133
     33 H142        -0.3590     3.9620    -2.2830 hn         1 953       0.476133
     34 H9           1.9000    -3.1280    -5.0460 ha         1 953       0.138000
     35 H8           1.4190    -4.4400    -7.1000 h4         1 953       0.047100
     36 H61N        -0.8210    -0.7270    -9.4670 hn         1 953       0.454800
     37 H62N        -2.1890    -1.4300    -8.6680 hn         1 953       0.454800
     38 H143        -1.1370     2.7510    -3.0400 hn         1 953       0.476133
@<TRIPOS>BOND
     1     1     2 1
     2     2     3 ar
     3     2    11 ar
     4     3     4 ar
     5     4     5 ar
     6     5     6 1
     7     5    10 ar
     8     6     7 1
     9     6     8 1
    10     6     9 1
    11    10    11 ar
    12    11    12 1
    13    12    13 1
    14    12    14 2
    15    13    19 1
    16    14    15 1
    17    14    18 1
    18    15    16 1
    19    15    17 2
    20    18    19 2
    21    19    20 1
    22    20    21 ar
    23    20    25 ar
    24    21    22 ar
    25    22    23 ar
    26    23    24 ar
    27    24    25 ar
    28    24    26 1
    29     3    27 1
    30     4    28 1
    31    10    29 1
    32    13    30 1
    33    18    31 1
    34    16    32 1
    35    16    33 1
    36    21    34 1
    37    22    35 1
    38    26    36 1
    39    26    37 1
    40    38    16 1
@<TRIPOS>SUBSTRUCTURE
     1 953         1 TEMP              0 ****  ****    0 ROOT
