@<TRIPOS>MOLECULE
953
   38    40     1     0     0
SMALL
bcc


@<TRIPOS>ATOM
      1 Cl           0.0000     0.0000     0.0000 cl         1 953      -0.009400
      2 C25          1.7360     0.0000     0.0000 ca         1 953       0.027400
      3 C24          2.4280     0.0000     1.1950 ca         1 953      -0.092000
      4 C23          3.8120    -0.0010     1.1960 ca         1 953       0.000000
      5 C18          4.5120    -0.0010     0.0030 ca         1 953      -0.201300
      6 C19          6.0190    -0.0030     0.0140 c3         1 953       0.643200
      7 F22          6.4740    -0.0030     1.3370 f          1 953      -0.199633
      8 F21          6.4890    -1.1450    -0.6410 f          1 953      -0.199633
      9 F20          6.4920     1.1390    -0.6410 f          1 953      -0.199633
     10 C17          3.8340    -0.0020    -1.1990 ca         1 953      -0.010000
     11 C16          2.4370    -0.0070    -1.2090 ca         1 953      -0.078000
     12 C15          1.7050    -0.0130    -2.4910 cc         1 953      -0.106300
     13 N1           1.7100    -1.0150    -3.4120 na         1 953       0.479900
     14 C11          0.8800     1.0040    -2.9700 cd         1 953      -0.327600
     15 C12          0.5780     2.2770    -2.2970 c          1 953       0.394700
     16 N14         -0.2420     3.1710    -2.8840 nz         1 953       0.210600
     17 O13          1.0700     2.5230    -1.2120 o          1 953      -0.459100
     18 C10          0.3890     0.5780    -4.2250 cd         1 953      -0.104000
     19 C2           0.9100    -0.6540    -4.4710 cc         1 953      -0.331800
     20 C3           0.6550    -1.4710    -5.6730 ca         1 953       0.480800
     21 C9           1.2480    -2.7330    -5.8140 ca         1 953      -0.354600
     22 C8           0.9780    -3.4610    -6.9580 ca         1 953       0.477200
     23 N7           0.1760    -2.9490    -7.8790 nb         1 953      -0.602000
     24 C5          -0.3720    -1.7520    -7.7200 ca         1 953       0.734900
     25 N4          -0.1470    -1.0220    -6.6400 nb         1 953      -0.626000
     26 N6          -1.2040    -1.2550    -8.7080 nv         1 953      -0.639500
     27 H24          1.8870    -0.0000     2.1330 ha         1 953       0.135000
     28 H23          4.3490    -0.0010     2.1360 ha         1 953       0.137000
     29 H17          4.3840    -0.0040    -2.1320 ha         1 953       0.120000
     30 H1           2.2150    -1.8750    -3.3320 hn         1 953       0.138700
     31 H10         -0.1820     1.1790    -4.9230 ha         1 953       0.137000
     32 H141         0.1550     3.4680    -3.7530 hn         1 953       0.243133
     33 H142        -0.3590     3.9620    -2.2830 hn         1 953       0.243133
     34 H9           1.9000    -3.1280    -5.0460 ha         1 953       0.116000
     35 H8           1.4190    -4.4400    -7.1000 h4         1 953      -0.002900
     36 H61N        -0.8210    -0.7270    -9.4670 hn         1 953       0.289800
     37 H62N        -2.1890    -1.4300    -8.6680 hn         1 953       0.289800
     38 H143        -1.1370     2.7510    -3.0400 hn         1 953       0.243133
@<TRIPOS>BOND
     1     1     2 1   
     2     2     3 ar  
     3     2    11 ar  
     4     3     4 ar  
     5     3    27 1   
     6     4     5 ar  
     7     4    28 1   
     8     5     6 1   
     9     5    10 ar  
    10     6     7 1   
    11     6     8 1   
    12     6     9 1   
    13    10    11 ar  
    14    10    29 1   
    15    11    12 1   
    16    12    13 1   
    17    12    14 2   
    18    13    19 1   
    19    13    30 1   
    20    14    15 1   
    21    14    18 1   
    22    15    16 1   
    23    15    17 2   
    24    16    32 1   
    25    16    33 1   
    26    16    38 1   
    27    18    19 2   
    28    18    31 1   
    29    19    20 1   
    30    20    21 ar  
    31    20    25 ar  
    32    21    22 ar  
    33    21    34 1   
    34    22    23 ar  
    35    22    35 1   
    36    23    24 ar  
    37    24    25 ar  
    38    24    26 1   
    39    26    36 1   
    40    26    37 1   
@<TRIPOS>SUBSTRUCTURE
     1 953         1 TEMP              0 ****  ****    0 ROOT
