@<TRIPOS>MOLECULE
954
   47    52     1     0     0
SMALL
bcc


@<TRIPOS>ATOM
      1 F            0.0000     0.0000     0.0000 f          1 954      -0.068000
      2 C15          1.3520     0.0000     0.0000 c2         1 954      -0.042000
      3 C13          2.0590     0.0000     1.1870 c2         1 954      -0.055000
      4 C14          1.3320    -0.0020     2.5070 c3         1 954      -0.091000
      5 N5           3.3840     0.0000     1.1520 n2         1 954      -0.075000
      6 C16          2.0670    -0.0050    -1.2020 c2         1 954      -0.113000
      7 S1           1.2190    -0.0110    -2.7470 ss         1 954       0.152000
      8 C17          2.6310    -0.0160    -3.8790 c3         1 954      -0.225000
      9 N6           3.3960    -0.0040    -1.1610 n2         1 954      -0.155000
     10 C12          4.0350     0.0010    -0.0010 c2         1 954      -0.003000
     11 N4           5.4200     0.0020     0.0060 nh         1 954       0.087000
     12 C10          5.9440     1.1930     0.7000 c3         1 954      -0.262000
     13 C9           6.8910     1.9140    -0.2770 DU         1 954      -0.277000
     14 N3           9.2810     1.7760     0.4490 n          1 954       0.101000
     15 N1           8.3220    -0.0190    -0.7540 n7         1 954      -0.007000
     16 C11          5.9570    -0.0150    -1.3710 c3         1 954      -0.344000
     17 C5           7.2560     0.8260    -1.3100 DU         1 954       0.038000
     18 C            7.6210     1.4110    -2.6500 c2         1 954      -0.358000
     19 C1           8.4160     0.8160    -3.5450 c2         1 954      -0.082000
     20 C2           8.6170     1.5210    -4.7080 c2         1 954      -0.088000
     21 C3           7.9570     2.7180    -4.7350 c2         1 954      -0.127000
     22 S            7.0710     2.9180    -3.2300 ss         1 954       0.399000
     23 C4           7.9830     3.6580    -5.8150 c1         1 954      -0.090000
     24 N            7.9920     4.3910    -6.6820 n1         1 954      -0.007000
     25 C8           8.1010     2.4110     0.4460 c2         1 954       0.232000
     26 C7          10.3950     2.3180     1.2300 c3         1 954      -0.081000
     27 C6           9.4570     0.6090    -0.2770 c2         1 954      -0.071000
     28 H1           1.8340    -0.9210     2.7850 hc         1 954       0.095333
     29 H2           0.3810     0.2500     2.0530 hc         1 954       0.095333
     30 H3           1.9270     0.8020     2.9240 hc         1 954       0.095333
     31 H4           3.2860     0.7940    -4.1760 h1         1 954       0.086000
     32 H5           2.2620    -0.6600    -4.6680 h1         1 954       0.086000
     33 H6           3.4450    -0.4660    -3.3250 h1         1 954       0.086000
     34 H7           5.0600     1.7690     0.4530 h1         1 954       0.108000
     35 H8           6.8660     1.0840     0.1420 DU         1 954       0.329000
     36 H9           6.3770     2.7350    -0.7610 ha         1 954       0.145000
     37 H10         11.2850     0.6300     0.0780 hn         1 954       0.096000
     38 H12          7.0010     0.2630    -1.2850 DU         1 954       0.143000
     39 H13          5.3540     0.1580    -2.2540 h1         1 954       0.186000
     40 H14          9.0970     0.0160    -3.2770 ha         1 954       0.141000
     41 H15          9.2720     1.3330    -5.5500 ha         1 954       0.142000
     42 H16         10.5990     3.3430     1.5180 h1         1 954       0.060667
     43 H17         10.8470     1.5880     1.8900 h1         1 954       0.060667
     44 H18         11.1350     2.2110     0.4450 h1         1 954       0.060667
     45 H11          8.4650    -0.8870    -1.2310 hn         1 954       0.131000
     46 O            8.0100     3.4500     1.0650 o          1 954      -0.331000
     47 N2          10.6440     0.1260    -0.5030 n2         1 954      -0.205000
@<TRIPOS>BOND
     1     1     2 1   
     2     2     3 1   
     3     2     6 1   
     4     3     4 1   
     5     3     5 1   
     6     4    28 1   
     7     4    29 1   
     8     4    30 1   
     9     5    10 1   
    10     6     7 1   
    11     6     9 1   
    12     7     8 1   
    13     8    31 1   
    14     8    32 1   
    15     8    33 1   
    16     9    10 1   
    17    10    11 1   
    18    11    12 1   
    19    11    16 1   
    20    12    13 1   
    21    12    34 1   
    22    12    35 1   
    23    13    17 1   
    24    13    25 1   
    25    13    35 1   
    26    13    36 1   
    27    14    25 1   
    28    14    26 1   
    29    14    27 1   
    30    15    17 1   
    31    15    27 1   
    32    15    45 1   
    33    16    17 1   
    34    16    38 1   
    35    16    39 1   
    36    17    18 1   
    37    17    38 1   
    38    18    19 1   
    39    18    22 1   
    40    19    20 1   
    41    19    40 1   
    42    20    21 1   
    43    20    41 1   
    44    21    22 1   
    45    21    23 1   
    46    23    24 1   
    47    25    46 1   
    48    26    42 1   
    49    26    43 1   
    50    26    44 1   
    51    27    47 1   
    52    37    47 1   
@<TRIPOS>SUBSTRUCTURE
     1 954         1 TEMP              0 ****  ****    0 ROOT
