@<TRIPOS>MOLECULE
molecule
   47    50     1     0     0
SMALL
bcc


@<TRIPOS>ATOM
      1 F            0.0000     0.0000     0.0000 f          1 954      -0.120900
      2 C15          1.3520     0.0000     0.0000 ca         1 954      -0.151700
      3 C13          2.0590     0.0000     1.1870 ca         1 954       0.443600
      4 C14          1.3320    -0.0020     2.5070 c3         1 954      -0.144400
      5 N5           3.3840     0.0000     1.1520 nb         1 954      -0.758000
      6 C16          2.0670    -0.0050    -1.2020 ca         1 954       0.570600
      7 S1           1.2190    -0.0110    -2.7470 ss         1 954      -0.337400
      8 C17          2.6310    -0.0160    -3.8790 c3         1 954      -0.025000
      9 N6           3.3960    -0.0040    -1.1610 nb         1 954      -0.797000
     10 C12          4.0350     0.0010    -0.0010 ca         1 954       0.876900
     11 N4           5.4200     0.0020     0.0060 nh         1 954      -0.628300
     12 C10          5.9440     1.1930     0.7000 c3         1 954       0.158800
     13 C9           6.8910     1.9140    -0.2770 c3         1 954      -0.165700
     14 N3           9.2810     1.7760     0.4490 n          1 954      -0.377300
     15 N1           8.3220    -0.0190    -0.7540 nu         1 954      -0.947200
     16 C11          5.9570    -0.0150    -1.3710 c3         1 954      -0.168200
     17 C5           7.2560     0.8260    -1.3100 c3         1 954       0.421500
     18 C            7.6210     1.4110    -2.6500 cc         1 954      -0.102400
     19 C1           8.4160     0.8160    -3.5450 cc         1 954      -0.118000
     20 C2           8.6170     1.5210    -4.7080 cc         1 954      -0.130000
     21 C3           7.9570     2.7180    -4.7350 cd         1 954      -0.027100
     22 S            7.0710     2.9180    -3.2300 ss         1 954       0.021200
     23 C4           7.9830     3.6580    -5.8150 ch         1 954       0.251800
     24 N            8.0100     4.4170    -6.6590 n1         1 954      -0.332800
     25 C8           8.1010     2.4110     0.4460 c          1 954       0.704500
     26 C7          10.3950     2.3180     1.2300 c3         1 954       0.090300
     27 C6           9.4570     0.6090    -0.2770 c2         1 954       0.596800
     28 H1           0.3730    -0.4830     2.3570 hc         1 954       0.083700
     29 H2           2.1040    -0.4160     3.1440 hc         1 954       0.083700
     30 H3           1.4170     1.0730     2.4070 hc         1 954       0.083700
     31 H4           2.2200     0.6400    -4.6380 h1         1 954       0.091700
     32 H5           2.3360    -0.9050    -4.4230 h1         1 954       0.091700
     33 H6           3.4700    -0.1050    -3.1990 h1         1 954       0.091700
     34 H7           6.9240     0.9210     1.0750 h1         1 954       0.105200
     35 H8           5.0590     1.5690     1.1990 h1         1 954       0.105200
     36 H9           6.3770     2.7350    -0.7610 hc         1 954       0.106700
     37 H10         10.5460    -0.6530    -1.1230 hn         1 954       0.375400
     38 H12          5.2390    -0.5250    -2.0020 h1         1 954       0.199700
     39 H13          7.0250    -0.0100    -1.1870 h1         1 954       0.199700
     40 H14          9.0030    -0.0920    -3.4660 ha         1 954       0.156000
     41 H15          9.0790     1.7730    -5.6550 ha         1 954       0.200000
     42 H16         10.8080     3.1990     0.7520 h1         1 954       0.067367
     43 H17         10.9260     1.5760     1.8130 h1         1 954       0.067367
     44 H18          9.7690     2.8390     1.9440 h1         1 954       0.067367
     45 H11          8.9340    -0.7660    -1.0180 hn         1 954       0.448800
     46 O            8.0100     3.4500     1.0650 o          1 954      -0.604500
     47 N2          10.6440     0.1260    -0.5030 n2         1 954      -0.828100
@<TRIPOS>BOND
     1    20    19 1
     2    20    21 2
     3    19    18 2
     4     4     3 1
     5    24    23 3
     6    23    21 1
     7    21    22 1
     8    18    22 1
     9    18    17 1
    10     5     3 ar
    11     5    10 ar
    12     3     2 ar
    13    16    17 1
    14    16    11 1
    15    17    13 1
    16    17    15 1
    17    10    11 1
    18    10     9 ar
    19    11    12 1
    20     2     1 1
    21     2     6 ar
    22    13    12 1
    23    13    25 1
    24     9     6 ar
    25     6     7 1
    26    15    27 1
    27    25    46 2
    28    25    14 1
    29     7     8 1
    30    27    14 1
    31    27    47 2
    32    14    26 1
    33     4    28 1
    34     4    29 1
    35     4    30 1
    36     8    31 1
    37     8    32 1
    38     8    33 1
    39    12    34 1
    40    12    35 1
    41    13    36 1
    42    47    37 1
    43    16    38 1
    44    16    39 1
    45    19    40 1
    46    20    41 1
    47    26    42 1
    48    26    43 1
    49    26    44 1
    50    15    45 1
@<TRIPOS>SUBSTRUCTURE
     1 954         1 TEMP              0 ****  ****    0 ROOT
