@<TRIPOS>MOLECULE
molecule
   45    48     1     0     0
SMALL
bcc


@<TRIPOS>ATOM
      1 CAA          0.0000     0.0000     0.0000 ca         1 956      -0.170000
      2 CAB          1.3880     0.0000     0.0000 ca         1 956      -0.067000
      3 CAC          2.0910     0.0000     1.1850 ca         1 956      -0.187000
      4 CAD         -0.6950     0.0010     1.1890 ca         1 956      -0.060000
      5 CAE          0.0040     0.0020     2.3980 ca         1 956      -0.156800
      6 CAF          1.4100     0.0010     2.3980 ca         1 956       0.109600
      7 NAG          2.1010     0.0010     3.5930 n          1 956      -0.338000
      8 CAH          1.4650     0.0020     4.7750 c          1 956       0.719700
      9 CAI          0.0510     0.0020     4.8570 cc         1 956      -0.154900
     10 CAJ         -0.7090     0.0030     3.6830 cd         1 956       0.318800
     11 OAK          2.1200     0.0010     5.8020 o          1 956      -0.635500
     12 CAL          3.5670     0.0010     3.5700 c3         1 956       0.079300
     13 NAM         -2.0790     0.0040     3.7290 nh         1 956      -0.783400
     14 CAN         -2.8100     1.1650     4.2570 c3         1 956       0.224300
     15 CAO         -3.7360     0.6910     5.3840 c3         1 956       0.094000
     16 NAP         -4.5000    -0.4690     4.9050 n          1 956      -0.493800
     17 CAQ         -3.7710    -1.6300     4.3770 c3         1 956       0.094000
     18 CAR         -2.8450    -1.1540     3.2460 c3         1 956       0.224300
     19 CAS         -5.8480    -0.4680     4.9510 c          1 956       0.706700
     20 OAT         -6.4450     0.5400     5.2830 o          1 956      -0.595100
     21 CAU         -6.5940    -1.6810     4.6020 cd         1 956      -0.121700
     22 SAV         -6.0450    -3.3290     4.8730 ss         1 956      -0.079800
     23 CAW         -7.4750    -3.9650     4.1940 cd         1 956      -0.100100
     24 CAX         -8.2940    -2.9850     3.7970 cc         1 956      -0.174000
     25 CAY         -7.8290    -1.7110     4.0180 cc         1 956      -0.086000
     26 CAZ         -0.5970     0.0030     6.1340 cg         1 956       0.243500
     27 NBA         -1.1020    -0.0130     7.1530 n1         1 956      -0.375800
     28 HAA         -0.5410    -0.0000    -0.9380 ha         1 956       0.139000
     29 HAB          1.9290    -0.0010    -0.9380 ha         1 956       0.138000
     30 HAC          3.1750    -0.0000     1.1720 ha         1 956       0.144000
     31 HAD         -1.7790     0.0020     1.1820 ha         1 956       0.145000
     32 HAL          3.9440     0.0210     4.5850 h1         1 956       0.060033
     33 HALA         3.9200    -0.8930     3.0710 h1         1 956       0.060033
     34 HALB         3.9190     0.8750     3.0360 h1         1 956       0.060033
     35 HAN         -2.1600     1.7080     4.9330 h1         1 956       0.055700
     36 HANA        -3.0830     1.8110     3.4310 h1         1 956       0.055700
     37 HAO         -3.1290     0.3360     6.2080 h1         1 956       0.075450
     38 HAOA        -4.3360     1.5280     5.7190 h1         1 956       0.075450
     39 HAQ         -3.2230    -2.0960     5.1870 h1         1 956       0.075450
     40 HAQA        -4.4860    -2.3390     3.9780 h1         1 956       0.075450
     41 HAR         -2.2170    -2.0350     3.3000 h1         1 956       0.055700
     42 HARA        -3.1260    -0.9810     2.2140 h1         1 956       0.055700
     43 HAW         -7.7160    -5.0160     4.0840 h4         1 956       0.173000
     44 HAX         -9.2650    -3.1180     3.3340 ha         1 956       0.152000
     45 HAY         -8.4500    -0.8500     3.8010 ha         1 956       0.169000
@<TRIPOS>BOND
     1     1     2 ar
     2     1     4 ar
     3     1    28 1
     4     2     3 ar
     5     2    29 1
     6     3     6 ar
     7     3    30 1
     8     4     5 ar
     9     4    31 1
    10     5     6 ar
    11     5    10 1
    12     6     7 1
    13     7    12 1
    14     7     8 1
    15     9     8 1
    16     8    11 2
    17    10     9 2
    18     9    26 1
    19    13    10 1
    20    12    32 1
    21    12    33 1
    22    12    34 1
    23    14    13 1
    24    13    18 1
    25    15    14 1
    26    14    35 1
    27    14    36 1
    28    15    16 1
    29    15    37 1
    30    15    38 1
    31    19    16 1
    32    16    17 1
    33    17    18 1
    34    17    39 1
    35    17    40 1
    36    18    41 1
    37    18    42 1
    38    21    19 1
    39    19    20 2
    40    25    21 2
    41    22    21 1
    42    23    22 1
    43    23    24 2
    44    23    43 1
    45    24    25 1
    46    24    44 1
    47    25    45 1
    48    26    27 3
@<TRIPOS>SUBSTRUCTURE
     1 956         1 TEMP              0 ****  ****    0 ROOT
