@<TRIPOS>MOLECULE
molecule
   63    65     1     0     0
SMALL
bcc


@<TRIPOS>ATOM
      1 C1           0.0000     0.0000     0.0000 c3         1 957      -0.168100
      2 C2           1.5070     0.0000     0.0000 c          1 957       0.659100
      3 N3           2.1810     0.0000     1.1670 ns         1 957      -0.583900
      4 C4           3.6460     0.0010     1.1670 c3         1 957       0.121700
      5 C5           4.1550     1.2500     0.4460 c3         1 957       0.121100
      6 C6           3.6450     2.4990     1.1680 c3         1 957       0.140800
      7 N7           4.0340     3.6950     0.4100 n7         1 957      -0.782200
      8 C8           3.4420     4.9060     0.9970 cx         1 957       0.181500
      9 C9           2.0230     5.2010     0.5860 cc         1 957       0.024600
     10 C10          1.3240     6.2770     0.9530 cd         1 957      -0.164000
     11 C11          0.0350     6.3340     0.4500 cd         1 957      -0.101300
     12 C12         -0.3120     5.3050    -0.3240 cc         1 957      -0.091100
     13 S13          1.0370     4.1830    -0.4560 ss         1 957      -0.124800
     14 C14         -0.9030     7.4720     0.7560 c3         1 957      -0.008100
     15 C15         -0.7380     8.5670    -0.2990 c3         1 957      -0.066000
     16 C16          0.7040     9.0770    -0.2830 c3         1 957      -0.082100
     17 C17         -1.0620     7.9960    -1.6820 c3         1 957      -0.082100
     18 C18         -1.6910     9.7220     0.0110 c3         1 957      -0.082100
     19 O19          2.1130     0.0010    -1.0500 o          1 957      -0.617100
     20 C20          4.1560    -1.2490     0.4450 c3         1 957      -0.059100
     21 C21          3.7570    -2.4760     1.2230 ca         1 957      -0.027300
     22 C22          2.5520    -3.0980     0.9610 ca         1 957      -0.182000
     23 C23          2.1850    -4.2270     1.6740 ca         1 957       0.159400
     24 C24          3.0260    -4.7310     2.6510 ca         1 957      -0.216000
     25 C25          4.2330    -4.1060     2.9130 ca         1 957       0.159400
     26 C26          4.6010    -2.9820     2.1940 ca         1 957      -0.182000
     27 F27          1.0060    -4.8350     1.4170 f          1 957      -0.135400
     28 F28          5.0550    -4.5970     3.8670 f          1 957      -0.135400
     29 O29          5.5850     1.2500     0.4460 oh         1 957      -0.615800
     30 C30          4.3700     6.0980     1.2410 cx         1 957      -0.140900
     31 C31          3.8560     5.2730     2.4240 cx         1 957      -0.140900
     32 H1          -0.3610    -0.8890    -0.5020 hc         1 957       0.062700
     33 H1A         -0.3610     0.0100     1.0210 hc         1 957       0.062700
     34 H1B         -0.3610     0.8800    -0.5190 hc         1 957       0.062700
     35 HN3          1.6810     0.0390     2.0340 hn         1 957       0.320500
     36 H4           4.0070     0.0000     2.1880 h1         1 957       0.069700
     37 H5           3.7940     1.2510    -0.5750 h1         1 957       0.090700
     38 H6           2.5660     2.4550     1.2460 h1         1 957       0.045200
     39 H6A          4.0770     2.5440     2.1600 h1         1 957       0.045200
     40 HN7          5.0310     3.7790     0.4070 hn         1 957       0.367800
     41 H10          1.7340     7.0470     1.5950 ha         1 957       0.146000
     42 H12         -1.2760     5.1810    -0.8020 h4         1 957       0.170000
     43 H14         -1.9240     7.1100     0.7450 hc         1 957       0.047700
     44 H14A        -0.6740     7.8760     1.7350 hc         1 957       0.047700
     45 H16          0.7670     9.9990    -0.8480 hc         1 957       0.035144
     46 H16A         1.3550     8.3350    -0.7300 hc         1 957       0.035144
     47 H16B         1.0120     9.2590     0.7400 hc         1 957       0.035144
     48 H17         -0.2630     7.3360    -1.9960 hc         1 957       0.035144
     49 H17A        -1.9910     7.4400    -1.6340 hc         1 957       0.035144
     50 H17B        -1.1620     8.8060    -2.3930 hc         1 957       0.035144
     51 H18         -1.5760    10.4970    -0.7380 hc         1 957       0.035144
     52 H18A        -2.7120     9.3610     0.0010 hc         1 957       0.035144
     53 H18B        -1.4610    10.1280     0.9890 hc         1 957       0.035144
     54 H20          5.2360    -1.2050     0.3680 hc         1 957       0.082700
     55 H20A         3.7250    -1.2940    -0.5470 hc         1 957       0.082700
     56 H22          1.8940    -2.7040     0.1960 ha         1 957       0.153000
     57 H24          2.7390    -5.6130     3.2120 ha         1 957       0.159000
     58 H26          5.5460    -2.4930     2.4000 ha         1 957       0.153000
     59 HO29         5.8990     1.3930    -0.4320 ho         1 957       0.413000
     60 H30          3.9180     7.0750     1.1210 hc         1 957       0.081450
     61 H30A         5.4100     5.9420     0.9800 hc         1 957       0.081450
     62 H31          4.5820     4.6140     2.8850 hc         1 957       0.081450
     63 H31A         3.0900     5.7460     3.0260 hc         1 957       0.081450
@<TRIPOS>BOND
     1     2     1 1
     2     1    32 1
     3     1    33 1
     4     1    34 1
     5    19     2 2
     6     2     3 1
     7     3     4 1
     8     3    35 1
     9     4    20 1
    10     4     5 1
    11     4    36 1
    12     6     5 1
    13     5    29 1
    14     5    37 1
    15     6     7 1
    16     6    38 1
    17     6    39 1
    18     8     7 1
    19     7    40 1
    20     9     8 1
    21    30     8 1
    22     8    31 1
    23    13     9 1
    24     9    10 2
    25    11    10 1
    26    10    41 1
    27    12    11 2
    28    14    11 1
    29    12    13 1
    30    12    42 1
    31    14    15 1
    32    14    43 1
    33    14    44 1
    34    16    15 1
    35    18    15 1
    36    15    17 1
    37    16    45 1
    38    16    46 1
    39    16    47 1
    40    17    48 1
    41    17    49 1
    42    17    50 1
    43    18    51 1
    44    18    52 1
    45    18    53 1
    46    21    20 1
    47    20    54 1
    48    20    55 1
    49    26    21 ar
    50    21    22 ar
    51    23    22 ar
    52    22    56 1
    53    24    23 ar
    54    23    27 1
    55    25    24 ar
    56    24    57 1
    57    28    25 1
    58    25    26 ar
    59    26    58 1
    60    29    59 1
    61    30    31 1
    62    30    60 1
    63    30    61 1
    64    31    62 1
    65    31    63 1
@<TRIPOS>SUBSTRUCTURE
     1 957         1 TEMP              0 ****  ****    0 ROOT
