@<TRIPOS>MOLECULE
959
   28    28     1     0     0
SMALL
bcc


@<TRIPOS>ATOM
      1 O15          0.0000     0.0000     0.0000 o          1 959      -0.556100
      2 C13          1.2080     0.0000     0.0000 c          1 959       0.595100
      3 C16          1.9610     0.0000     1.3050 c3         1 959      -0.085100
      4 C12          1.9620    -0.0060    -1.3050 c3         1 959      -0.032000
      5 N10          1.0100    -0.0120    -2.4190 ns         1 959      -0.175900
      6 C9           1.4600    -0.0190    -3.6900 c          1 959       0.680100
      7 O11          2.6540    -0.0200    -3.9110 o          1 959      -0.668000
      8 O8           0.5850    -0.0230    -4.7130 os         1 959      -0.417900
      9 C7           1.1400    -0.0310    -6.0550 c3         1 959       0.303700
     10 C5           0.0190    -0.0360    -7.0620 ca         1 959      -0.120300
     11 C6          -0.4950     1.1590    -7.5300 ca         1 959      -0.074000
     12 C1          -1.5230     1.1540    -8.4540 ca         1 959      -0.106500
     13 C2          -2.0370    -0.0460    -8.9100 ca         1 959      -0.090000
     14 C3          -1.5220    -1.2400    -8.4430 ca         1 959      -0.106500
     15 C4          -0.4910    -1.2350    -7.5220 ca         1 959      -0.074000
     16 H16          1.2580     0.0170     2.1280 hc         1 959       0.028700
     17 H16A         2.5970     0.8760     1.3550 hc         1 959       0.028700
     18 H16B         2.5720    -0.8930     1.3690 hc         1 959       0.028700
     19 H12          2.5840     0.8780    -1.3670 h1         1 959       0.045700
     20 H12A         2.5850    -0.8910    -1.3580 h1         1 959       0.045700
     21 HN10         0.0260    -0.0110    -2.2360 hn         1 959       0.201500
     22 H7           1.7500     0.8530    -6.1980 h1         1 959       0.013700
     23 H7A          1.7500    -0.9160    -6.1880 h1         1 959       0.013700
     24 H6          -0.0920     2.0990    -7.1730 ha         1 959       0.106000
     25 H1          -1.9270     2.0910    -8.8210 ha         1 959       0.104000
     26 H2          -2.8440    -0.0490    -9.6320 ha         1 959       0.102000
     27 H3          -1.9240    -2.1800    -8.8020 ha         1 959       0.104000
     28 H4          -0.0870    -2.1710    -7.1560 ha         1 959       0.106000
@<TRIPOS>BOND
     1     1     2 2   
     2     2     3 1   
     3     2     4 1   
     4     3    16 1   
     5     3    17 1   
     6     3    18 1   
     7     4     5 1   
     8     4    19 1   
     9     4    20 1   
    10     5     6 1   
    11     5    21 1   
    12     6     7 2   
    13     6     8 1   
    14     8     9 1   
    15     9    10 1   
    16     9    22 1   
    17     9    23 1   
    18    10    11 ar  
    19    10    15 ar  
    20    11    12 ar  
    21    11    24 1   
    22    12    13 ar  
    23    12    25 1   
    24    13    14 ar  
    25    13    26 1   
    26    14    15 ar  
    27    14    27 1   
    28    15    28 1   
@<TRIPOS>SUBSTRUCTURE
     1 959         1 TEMP              0 ****  ****    0 ROOT
