@<TRIPOS>MOLECULE
molecule
   28    28     1     0     0
SMALL
bcc


@<TRIPOS>ATOM
      1 O15          0.0000     0.0000     0.0000 o          1 959      -0.523100
      2 C13          1.2080     0.0000     0.0000 c          1 959       0.551100
      3 C16          1.9610     0.0000     1.3050 c3         1 959      -0.192100
      4 C12          1.9620    -0.0060    -1.3050 c3         1 959       0.033000
      5 N10          1.0100    -0.0120    -2.4190 ns         1 959      -0.571900
      6 C9           1.4600    -0.0190    -3.6900 c          1 959       0.751100
      7 O11          2.6540    -0.0200    -3.9110 o          1 959      -0.620000
      8 O8           0.5850    -0.0230    -4.7130 os         1 959      -0.433900
      9 C7           1.1400    -0.0310    -6.0550 c3         1 959       0.216700
     10 C5           0.0190    -0.0360    -7.0620 ca         1 959      -0.101300
     11 C6          -0.4950     1.1590    -7.5300 ca         1 959      -0.102000
     12 C1          -1.5230     1.1540    -8.4540 ca         1 959      -0.133000
     13 C2          -2.0370    -0.0460    -8.9100 ca         1 959      -0.116000
     14 C3          -1.5220    -1.2400    -8.4430 ca         1 959      -0.133000
     15 C4          -0.4910    -1.2350    -7.5220 ca         1 959      -0.102000
     16 H16          1.2580     0.0170     2.1280 hc         1 959       0.066700
     17 H16A         2.5970     0.8760     1.3550 hc         1 959       0.066700
     18 H16B         2.5720    -0.8930     1.3690 hc         1 959       0.066700
     19 H12          2.5840     0.8780    -1.3670 h1         1 959       0.076700
     20 H12A         2.5850    -0.8910    -1.3580 h1         1 959       0.076700
     21 HN10         0.0260    -0.0110    -2.2360 hn         1 959       0.345500
     22 H7           1.7500     0.8530    -6.1980 h1         1 959       0.056700
     23 H7A          1.7500    -0.9160    -6.1880 h1         1 959       0.056700
     24 H6          -0.0920     2.0990    -7.1730 ha         1 959       0.134000
     25 H1          -1.9270     2.0910    -8.8210 ha         1 959       0.132000
     26 H2          -2.8440    -0.0490    -9.6320 ha         1 959       0.131000
     27 H3          -1.9240    -2.1800    -8.8020 ha         1 959       0.132000
     28 H4          -0.0870    -2.1710    -7.1560 ha         1 959       0.134000
@<TRIPOS>BOND
     1     1     2 2
     2     2     3 1
     3     2     4 1
     4     4     5 1
     5     5     6 1
     6     6     7 2
     7     6     8 1
     8     8     9 1
     9     9    10 1
    10    10    11 ar
    11    10    15 ar
    12    11    12 ar
    13    12    13 ar
    14    13    14 ar
    15    14    15 ar
    16     3    16 1
    17     3    17 1
    18     3    18 1
    19     4    19 1
    20     4    20 1
    21     5    21 1
    22     9    22 1
    23     9    23 1
    24    11    24 1
    25    12    25 1
    26    13    26 1
    27    14    27 1
    28    15    28 1
@<TRIPOS>SUBSTRUCTURE
     1 959         1 TEMP              0 ****  ****    0 ROOT
