@<TRIPOS>MOLECULE
molecule
   51    52     1     0     0
SMALL
bcc


@<TRIPOS>ATOM
      1 OAH          0.0000     0.0000     0.0000 oh         1 95B      -0.475100
      2 CBA          1.3570     0.0000     0.0000 ca         1 95B       0.150100
      3 CAY          2.0570     0.0000     1.2020 ca         1 95B       0.042100
      4 OAF          1.3810     0.0010     2.3820 oh         1 95B      -0.525100
      5 CAL          3.4420     0.0000     1.1970 ca         1 95B      -0.148000
      6 CAJ          4.1360     0.0000    -0.0000 ca         1 95B      -0.145000
      7 CAN          3.4580    -0.0010    -1.2000 ca         1 95B      -0.101000
      8 CBC          2.0600    -0.0070    -1.2110 ca         1 95B      -0.125600
      9 CAW          1.3290    -0.0080    -2.4930 c          1 95B       0.669700
     10 OAC          0.1140    -0.0130    -2.4990 o          1 95B      -0.587100
     11 N            2.0090    -0.0020    -3.6560 ns         1 95B      -0.546900
     12 CA           1.2840    -0.0030    -4.9290 c3         1 95B       0.007700
     13 C            0.9340    -1.4190    -5.3070 c          1 95B       0.885600
     14 O            1.2570    -2.3340    -4.5870 o          1 95B      -0.837300
     15 OXT          0.2630    -1.6650    -6.4430 o          1 95B      -0.837300
     16 CB           2.1640     0.6120    -6.0180 c3         1 95B      -0.075400
     17 CAP          2.4180     2.0870    -5.6980 c3         1 95B      -0.085400
     18 CAO          3.2980     2.7030    -6.7870 c3         1 95B      -0.102400
     19 CAQ          3.5500     4.1770    -6.4660 c3         1 95B       0.109000
     20 NAS          4.3930     4.7660    -7.5090 ns         1 95B      -0.581900
     21 CAV          4.7480     6.0640    -7.4360 c          1 95B       0.665700
     22 OAB          4.3680     6.7470    -6.5030 o          1 95B      -0.589100
     23 CBB          5.5970     6.6580    -8.4860 ca         1 95B      -0.149600
     24 CAM          6.0350     5.8770    -9.5590 ca         1 95B      -0.100000
     25 CAI          6.8280     6.4350   -10.5380 ca         1 95B      -0.139000
     26 CAK          7.1940     7.7690   -10.4670 ca         1 95B      -0.135000
     27 CAX          6.7680     8.5560    -9.4100 ca         1 95B       0.049100
     28 OAE          7.1310     9.8640    -9.3460 oh         1 95B      -0.518100
     29 CAZ          5.9620     8.0070    -8.4160 ca         1 95B       0.154100
     30 OAG          5.5420     8.7750    -7.3780 oh         1 95B      -0.483100
     31 H1          -0.3140     0.8350     0.3050 ho         1 95B       0.421000
     32 H2           1.4350    -0.8540     2.7770 ho         1 95B       0.418000
     33 H3           3.9840     0.0010     2.1350 ha         1 95B       0.127000
     34 H4           5.2200     0.0030     0.0050 ha         1 95B       0.124000
     35 H5           4.0080    -0.0040    -2.1330 ha         1 95B       0.137000
     36 H6           3.0090    -0.0410    -3.6500 hn         1 95B       0.294500
     37 H7           0.3760     0.5790    -4.8270 h1         1 95B       0.075700
     38 H9           1.6630     0.5320    -6.9750 hc         1 95B       0.055200
     39 H10          3.1090     0.0840    -6.0600 hc         1 95B       0.055200
     40 H11          1.4730     2.6150    -5.6560 hc         1 95B       0.041200
     41 H12          2.9180     2.1670    -4.7400 hc         1 95B       0.041200
     42 H13          4.2430     2.1750    -6.8280 hc         1 95B       0.042200
     43 H14          2.7970     2.6220    -7.7440 hc         1 95B       0.042200
     44 H15          2.6040     4.7040    -6.4250 h1         1 95B       0.053700
     45 H16          4.0500     4.2570    -5.5080 h1         1 95B       0.053700
     46 H17          4.6990     4.2060    -8.2800 hn         1 95B       0.310500
     47 H18          5.7560     4.8320    -9.6170 ha         1 95B       0.136000
     48 H19          7.1660     5.8270   -11.3690 ha         1 95B       0.135000
     49 H20          7.8160     8.1990   -11.2420 ha         1 95B       0.137000
     50 H21          8.0380     9.9260    -9.0940 ho         1 95B       0.422000
     51 H22          4.9110     9.4040    -7.6880 ho         1 95B       0.431000
@<TRIPOS>BOND
     1    14    13 1
     2    15    13 1
     3    13    12 1
     4     6     5 ar
     5     6     7 ar
     6     5     3 ar
     7     7     8 ar
     8     3     4 1
     9     3     2 ar
    10    10     9 2
    11     8     2 ar
    12     8     9 1
    13     2     1 1
    14     9    11 1
    15    11    12 1
    16    12    16 1
    17    17    16 1
    18    17    18 1
    19    30    29 1
    20    28    27 1
    21    19    20 1
    22    19    18 1
    23    20    21 1
    24    29    27 ar
    25    29    23 ar
    26    27    26 ar
    27    21    23 1
    28    21    22 2
    29    23    24 ar
    30    26    25 ar
    31    24    25 ar
    32     1    31 1
    33     4    32 1
    34     5    33 1
    35     6    34 1
    36     7    35 1
    37    11    36 1
    38    12    37 1
    39    16    38 1
    40    16    39 1
    41    17    40 1
    42    17    41 1
    43    18    42 1
    44    18    43 1
    45    19    44 1
    46    19    45 1
    47    20    46 1
    48    24    47 1
    49    25    48 1
    50    26    49 1
    51    28    50 1
    52    30    51 1
@<TRIPOS>SUBSTRUCTURE
     1 95B         1 TEMP              0 ****  ****    0 ROOT
