@<TRIPOS>MOLECULE
95B
   51    52     1     0     0
SMALL
bcc


@<TRIPOS>ATOM
      1 OAH          0.0000     0.0000     0.0000 oh         1 95B      -0.451100
      2 CBA          1.3570     0.0000     0.0000 ca         1 95B       0.165100
      3 CAY          2.0570     0.0000     1.2020 ca         1 95B       0.046100
      4 OAF          1.3810     0.0010     2.3820 oh         1 95B      -0.502100
      5 CAL          3.4420     0.0000     1.1970 ca         1 95B      -0.131000
      6 CAJ          4.1360     0.0000    -0.0000 ca         1 95B      -0.121000
      7 CAN          3.4580    -0.0010    -1.2000 ca         1 95B      -0.083000
      8 CBC          2.0600    -0.0070    -1.2110 ca         1 95B      -0.135600
      9 CAW          1.3290    -0.0080    -2.4930 c          1 95B       0.583700
     10 OAC          0.1140    -0.0130    -2.4990 o          1 95B      -0.634100
     11 N            2.0090    -0.0020    -3.6560 ns         1 95B      -0.141900
     12 CA           1.2840    -0.0030    -4.9290 c3         1 95B      -0.098300
     13 C            0.9340    -1.4190    -5.3070 c          1 95B       0.975600
     14 O            1.2570    -2.3340    -4.5870 o          1 95B      -0.887800
     15 OXT          0.2630    -1.6650    -6.4430 o          1 95B      -0.887800
     16 CB           2.1640     0.6120    -6.0180 c3         1 95B      -0.023400
     17 CAP          2.4180     2.0870    -5.6980 c3         1 95B      -0.035400
     18 CAO          3.2980     2.7030    -6.7870 c3         1 95B      -0.043400
     19 CAQ          3.5500     4.1770    -6.4660 c3         1 95B       0.046000
     20 NAS          4.3930     4.7660    -7.5090 ns         1 95B      -0.196900
     21 CAV          4.7480     6.0640    -7.4360 c          1 95B       0.587700
     22 OAB          4.3680     6.7470    -6.5030 o          1 95B      -0.635100
     23 CBB          5.5970     6.6580    -8.4860 ca         1 95B      -0.164600
     24 CAM          6.0350     5.8770    -9.5590 ca         1 95B      -0.080000
     25 CAI          6.8280     6.4350   -10.5380 ca         1 95B      -0.112000
     26 CAK          7.1940     7.7690   -10.4670 ca         1 95B      -0.115000
     27 CAX          6.7680     8.5560    -9.4100 ca         1 95B       0.054100
     28 OAE          7.1310     9.8640    -9.3460 oh         1 95B      -0.496100
     29 CAZ          5.9620     8.0070    -8.4160 ca         1 95B       0.171100
     30 OAG          5.5420     8.7750    -7.3780 oh         1 95B      -0.460100
     31 H1          -0.3140     0.8350     0.3050 ho         1 95B       0.398000
     32 H2           1.4350    -0.8540     2.7770 ho         1 95B       0.401000
     33 H3           3.9840     0.0010     2.1350 ha         1 95B       0.101000
     34 H4           5.2200     0.0030     0.0050 ha         1 95B       0.097000
     35 H5           4.0080    -0.0040    -2.1330 ha         1 95B       0.111000
     36 H6           3.0090    -0.0410    -3.6500 hn         1 95B       0.156500
     37 H7           0.3760     0.5790    -4.8270 h1         1 95B       0.057700
     38 H9           1.6630     0.5320    -6.9750 hc         1 95B       0.028700
     39 H10          3.1090     0.0840    -6.0600 hc         1 95B       0.028700
     40 H11          1.4730     2.6150    -5.6560 hc         1 95B       0.014200
     41 H12          2.9180     2.1670    -4.7400 hc         1 95B       0.014200
     42 H13          4.2430     2.1750    -6.8280 hc         1 95B       0.015200
     43 H14          2.7970     2.6220    -7.7440 hc         1 95B       0.015200
     44 H15          2.6040     4.7040    -6.4250 h1         1 95B       0.026700
     45 H16          4.0500     4.2570    -5.5080 h1         1 95B       0.026700
     46 H17          4.6990     4.2060    -8.2800 hn         1 95B       0.176500
     47 H18          5.7560     4.8320    -9.6170 ha         1 95B       0.109000
     48 H19          7.1660     5.8270   -11.3690 ha         1 95B       0.105000
     49 H20          7.8160     8.1990   -11.2420 ha         1 95B       0.108000
     50 H21          8.0380     9.9260    -9.0940 ho         1 95B       0.405000
     51 H22          4.9110     9.4040    -7.6880 ho         1 95B       0.408000
@<TRIPOS>BOND
     1     1     2 1   
     2     1    31 1   
     3     2     3 ar  
     4     2     8 ar  
     5     3     4 1   
     6     3     5 ar  
     7     4    32 1   
     8     5     6 ar  
     9     5    33 1   
    10     6     7 ar  
    11     6    34 1   
    12     7     8 ar  
    13     7    35 1   
    14     8     9 1   
    15     9    10 2   
    16     9    11 1   
    17    11    12 1   
    18    11    36 1   
    19    12    13 1   
    20    12    16 1   
    21    12    37 1   
    22    13    14 1   
    23    13    15 1   
    24    16    17 1   
    25    16    38 1   
    26    16    39 1   
    27    17    18 1   
    28    17    40 1   
    29    17    41 1   
    30    18    19 1   
    31    18    42 1   
    32    18    43 1   
    33    19    20 1   
    34    19    44 1   
    35    19    45 1   
    36    20    21 1   
    37    20    46 1   
    38    21    22 2   
    39    21    23 1   
    40    23    24 ar  
    41    23    29 ar  
    42    24    25 ar  
    43    24    47 1   
    44    25    26 ar  
    45    25    48 1   
    46    26    27 ar  
    47    26    49 1   
    48    27    28 1   
    49    27    29 ar  
    50    28    50 1   
    51    29    30 1   
    52    30    51 1   
@<TRIPOS>SUBSTRUCTURE
     1 95B         1 TEMP              0 ****  ****    0 ROOT
