@<TRIPOS>MOLECULE
molecule
   36    37     1     0     0
SMALL
bcc


@<TRIPOS>ATOM
      1 CAA          0.0000     0.0000     0.0000 ca         1 95C      -0.234600
      2 CAB          1.3970     0.0000     0.0000 ca         1 95C      -0.106000
      3 CAC          2.0840     0.0000     1.1960 ca         1 95C      -0.083000
      4 CAD          1.3950     0.0000     2.3970 ca         1 95C      -0.070200
      5 CAE          0.0140     0.0000     2.4120 ca         1 95C      -0.073000
      6 CAF         -0.6930     0.0060     1.2190 ca         1 95C       0.172600
      7 CAG         -0.7410    -0.0000    -1.2760 c          1 95C       0.516700
      8 CAN         -2.7540    -0.7910     2.0910 c          1 95C       0.655100
      9 CAO         -4.2560    -0.8810     2.0230 c3         1 95C      -0.094100
     10 CAP         -4.7500    -1.8330     3.0820 ca         1 95C      -0.096300
     11 CAQ         -5.0660    -1.3600     4.3420 ca         1 95C      -0.108500
     12 CAR         -5.5190    -2.2320     5.3140 ca         1 95C      -0.118500
     13 CAS         -5.6560    -3.5770     5.0260 ca         1 95C      -0.107000
     14 CAT         -5.3390    -4.0500     3.7660 ca         1 95C      -0.118500
     15 CAU         -4.8920    -3.1760     2.7920 ca         1 95C      -0.108500
     16 NAI         -0.0710     0.0340    -2.4450 nz         1 95C      -0.679400
     17 NAJ          2.1440    -0.0000     3.6740 no         1 95C       0.281200
     18 NAM         -2.0870     0.0060     1.2310 ns         1 95C      -0.491100
     19 OAH         -1.9560    -0.0310    -1.2730 o          1 95C      -0.435100
     20 OAK          1.5430    -0.0010     4.7330 o          1 95C      -0.158500
     21 OAL          3.3630    -0.0010     3.6650 o          1 95C      -0.158500
     22 OAV         -2.1430    -1.4340     2.9170 o          1 95C      -0.544100
     23 H1           1.9390    -0.0020    -0.9380 ha         1 95C       0.125000
     24 H2           3.1670    -0.0000     1.1950 ha         1 95C       0.193000
     25 H3          -0.5170     0.0020     3.3570 ha         1 95C       0.222000
     26 H4          -4.5520    -1.2440     1.0450 hc         1 95C       0.076200
     27 H5          -4.6850     0.0990     2.1890 hc         1 95C       0.076200
     28 H6          -4.9590    -0.3060     4.5670 ha         1 95C       0.125500
     29 H7          -5.7670    -1.8610     6.3010 ha         1 95C       0.140000
     30 H8          -6.0080    -4.2610     5.7890 ha         1 95C       0.141000
     31 H9          -5.4480    -5.1040     3.5400 ha         1 95C       0.140000
     32 H10         -4.6440    -3.5470     1.8050 ha         1 95C       0.125500
     33 H11         -0.7240     0.0490    -3.2040 hn         1 95C       0.480800
     34 H12          0.5100    -0.7770    -2.5210 hn         1 95C       0.480800
     35 H13         -2.5920     0.6370     0.6410 hn         1 95C       0.349500
     36 HAI3         0.4860     0.8650    -2.4870 hn         1 95C       0.480800
@<TRIPOS>BOND
     1    13    12 ar
     2    13    14 ar
     3    12    11 ar
     4    14    15 ar
     5    11    10 ar
     6    15    10 ar
     7    10     9 1
     8    22     8 2
     9     9     8 1
    10     8    18 1
    11    20    17 1
    12    18     6 1
    13     5     6 ar
    14     5     4 ar
    15    17    21 1
    16    17     4 1
    17     6     1 ar
    18     4     3 ar
    19     1     7 1
    20     1     2 ar
    21    16     7 1
    22     3     2 ar
    23     7    19 2
    24     2    23 1
    25     3    24 1
    26     5    25 1
    27     9    26 1
    28     9    27 1
    29    11    28 1
    30    12    29 1
    31    13    30 1
    32    14    31 1
    33    15    32 1
    34    16    33 1
    35    16    34 1
    36    18    35 1
    37    36    16 1
@<TRIPOS>SUBSTRUCTURE
     1 95C         1 TEMP              0 ****  ****    0 ROOT
