@<TRIPOS>MOLECULE
molecule
   43    45     1     0     0
SMALL
bcc


@<TRIPOS>ATOM
      1 C5           0.0000     0.0000     0.0000 cc         1 95D       0.084900
      2 C7           2.5470    -4.9560    -1.8170 cd         1 95D       0.576300
      3 C10          2.5530    -2.5980    -1.5640 c          1 95D       0.790100
      4 N12          1.2570    -5.0710    -1.8730 nc         1 95D      -0.683000
      5 C13          1.6970    -7.2500    -2.0890 cd         1 95D      -0.114300
      6 C17         -1.6220    -0.0040     6.4060 c          1 95D       0.467100
      7 C24          3.0160    -0.0010     2.0350 ca         1 95D      -0.096000
      8 C28          1.9280    -0.0010     4.1640 ca         1 95D      -0.209000
      9 C14          0.7710    -6.2900    -2.0170 cc         1 95D       0.430200
     10 C18          0.6850    -0.0010     3.5600 ca         1 95D       0.103100
     11 C2           1.3430     0.0000     0.0000 cd         1 95D      -0.372300
     12 C23         -0.2730    -0.0030     5.7360 c3         1 95D       0.080400
     13 C27          3.0860     0.0010     3.3990 ca         1 95D      -0.104000
     14 C3           1.7720     0.0000     1.4010 ca         1 95D       0.006200
     15 C9           0.5940    -0.0000     2.1680 ca         1 95D      -0.045200
     16 N11          3.2340    -3.7570    -1.6630 ns         1 95D      -0.531400
     17 N26         -1.7080    -0.0050     7.7510 nz         1 95D      -0.683400
     18 N4          -0.4660     0.0060     1.2860 na         1 95D      -0.053400
     19 N6           3.2180    -1.4360    -1.4130 ns         1 95D      -0.662300
     20 O15          1.5340    -0.0350    -2.5500 o          1 95D      -0.607800
     21 O16          3.3560     1.0200    -1.2020 o          1 95D      -0.607800
     22 O19          1.3380    -2.6010    -1.6090 o          1 95D      -0.557100
     23 O20         -0.4440    -0.0010     4.3180 os         1 95D      -0.308900
     24 O21         -2.6320    -0.0030     5.7340 o          1 95D      -0.358100
     25 S1           2.3910    -0.0010    -1.4160 sy         1 95D       1.448500
     26 S8           3.2810    -6.4940    -1.9560 ss         1 95D      -0.164300
     27 Br22         1.3620    -9.1000    -2.2950 br         1 95D      -0.012100
     28 H1          -0.6220    -0.0030    -0.8870 h4         1 95D       0.209000
     29 H2           3.9250     0.0010     1.4450 ha         1 95D       0.152000
     30 H3           1.9990     0.0000     5.2450 ha         1 95D       0.113000
     31 H4          -0.2910    -6.4940    -2.0740 h4         1 95D       0.061100
     32 H5           0.2770     0.8820     6.0340 h1         1 95D       0.084200
     33 H6           0.2780    -0.8870     6.0320 h1         1 95D       0.084200
     34 H7          -2.4960     0.0190     0.7780 h1         1 95D       0.059033
     35 H8          -2.1000    -0.8720     2.2540 h1         1 95D       0.059033
     36 H9          -2.0900     0.8970     2.2590 h1         1 95D       0.059033
     37 H10          4.0520     0.0010     3.8880 ha         1 95D       0.146000
     38 H11          4.2330    -3.7550    -1.6170 hn         1 95D       0.337500
     39 H12         -1.3100     0.8390     8.1110 hn         1 95D       0.481467
     40 H13         -2.6700    -0.0630     8.0230 hn         1 95D       0.481467
     41 H14          4.2160    -1.4380    -1.3340 hn         1 95D       0.340500
     42 C25         -1.8800     0.0130     1.6690 c3         1 95D       0.036600
     43 H263        -1.2050    -0.7890     8.1170 hn         1 95D       0.481467
@<TRIPOS>BOND
     1    13     8 ar
     2    13     7 ar
     3     8    10 ar
     4     7    14 ar
     5    12     6 1
     6    12    23 1
     7     4     2 2
     8     4     9 1
     9    16     2 1
    10    16     3 1
    11    10    23 1
    12    10    15 ar
    13     6    17 1
    14     6    24 2
    15    19     3 1
    16    19    25 1
    17    20    25 2
    18    14    15 ar
    19    14    11 1
    20     2    26 1
    21     9     5 2
    22    15    18 1
    23     3    22 2
    24    25    11 1
    25    25    21 2
    26    11     1 2
    27     5    26 1
    28     5    27 1
    29    18     1 1
    30    18    42 1
    31     1    28 1
    32     7    29 1
    33     8    30 1
    34     9    31 1
    35    12    32 1
    36    12    33 1
    37    42    34 1
    38    42    35 1
    39    42    36 1
    40    13    37 1
    41    16    38 1
    42    17    39 1
    43    17    40 1
    44    19    41 1
    45    43    17 1
@<TRIPOS>SUBSTRUCTURE
     1 95D         1 TEMP              0 ****  ****    0 ROOT
