@<TRIPOS>MOLECULE
molecule
   38    37     1     0     0
SMALL
bcc


@<TRIPOS>ATOM
      1 C2           0.0000     0.0000     0.0000 c3         1 95E       0.100400
      2 O12          1.0610     3.5320     6.1620 oh         1 95E      -0.611800
      3 C11          1.9800     2.4410     6.2380 c3         1 95E       0.100400
      4 C10          3.1490     2.6920     5.2830 c3         1 95E       0.173000
      5 C13          3.7840     4.0470     5.5990 c3         1 95E      -0.068400
      6 C14          5.0280     4.2440     4.7300 c3         1 95E      -0.085100
      7 N9           2.6590     2.6920     3.8980 n7         1 95E      -0.813700
      8 C8           2.5960     1.3250     3.3620 c3         1 95E       0.152800
      9 C7           2.0830     1.3670     1.9210 c3         1 95E       0.152800
     10 N6           2.0200     0.0000     1.3850 n7         1 95E      -0.813700
     11 C3           1.5300     0.0000     0.0000 c3         1 95E       0.173000
     12 O1          -0.4760    -1.2210     0.5690 oh         1 95E      -0.611800
     13 C4           2.0400    -1.2490    -0.7220 c3         1 95E      -0.068400
     14 C5           3.5650    -1.1880    -0.8320 c3         1 95E      -0.085100
     15 H1          -0.3610     0.0890    -1.0170 h1         1 95E       0.023700
     16 H2          -0.3610     0.8370     0.5860 h1         1 95E       0.023700
     17 H3           0.3790     3.4140     6.8030 ho         1 95E       0.403000
     18 H5           2.3530     2.3530     7.2510 h1         1 95E       0.023700
     19 H6           3.8880     1.9100     5.4040 h1         1 95E       0.064700
     20 H7           4.0660     4.0790     6.6450 hc         1 95E       0.048200
     21 H8           3.0720     4.8370     5.3930 hc         1 95E       0.048200
     22 H9           5.5980     5.0870     5.1010 hc         1 95E       0.034033
     23 H10          5.6400     3.3500     4.7680 hc         1 95E       0.034033
     24 H11          4.7280     4.4320     3.7070 hc         1 95E       0.034033
     25 H12          1.7480     3.1050     3.8660 hn         1 95E       0.367800
     26 H14          3.5860     0.8840     3.3800 h1         1 95E       0.035950
     27 H15          1.9240     0.7300     3.9680 h1         1 95E       0.035950
     28 H16          1.0930     1.8080     1.9030 h1         1 95E       0.035950
     29 H17          2.7550     1.9620     1.3150 h1         1 95E       0.035950
     30 H18          1.4110    -0.5540     1.9540 hn         1 95E       0.367800
     31 H20          1.8910     0.8850    -0.5110 h1         1 95E       0.064700
     32 H21         -1.4160    -1.2530     0.5020 ho         1 95E       0.403000
     33 H22          1.6080    -1.2940    -1.7140 hc         1 95E       0.048200
     34 H23          1.7540    -2.1310    -0.1620 hc         1 95E       0.048200
     35 H24          4.0050    -1.3640     0.1420 hc         1 95E       0.034033
     36 H25          3.8620    -0.2100    -1.1910 hc         1 95E       0.034033
     37 H26          3.9080    -1.9470    -1.5250 hc         1 95E       0.034033
     38 H4           1.4760     1.5240     5.9580 h1         1 95E       0.023700
@<TRIPOS>BOND
     1    14    13 1
     2    13    11 1
     3    11    10 1
     4    11     1 1
     5     5     4 1
     6     5     6 1
     7    10     9 1
     8     4     3 1
     9     4     7 1
    10     8     9 1
    11     8     7 1
    12     2     3 1
    13     1    12 1
    14     1    15 1
    15     1    16 1
    16     2    17 1
    17     3    38 1
    18     3    18 1
    19     4    19 1
    20     5    20 1
    21     5    21 1
    22     6    22 1
    23     6    23 1
    24     6    24 1
    25     7    25 1
    26     8    26 1
    27     8    27 1
    28     9    28 1
    29     9    29 1
    30    10    30 1
    31    11    31 1
    32    12    32 1
    33    13    33 1
    34    13    34 1
    35    14    35 1
    36    14    36 1
    37    14    37 1
@<TRIPOS>SUBSTRUCTURE
     1 95E         1 TEMP              0 ****  ****    0 ROOT
