@<TRIPOS>MOLECULE
95E
   38    37     1     0     0
SMALL
bcc


@<TRIPOS>ATOM
      1 C2           0.0000     0.0000     0.0000 c3         1 95E       0.187400
      2 O12          1.0610     3.5320     6.1620 oh         1 95E      -0.591800
      3 C11          1.9800     2.4410     6.2380 c3         1 95E       0.187400
      4 C10          3.1490     2.6920     5.2830 c3         1 95E       0.112000
      5 C13          3.7840     4.0470     5.5990 c3         1 95E      -0.018400
      6 C14          5.0280     4.2440     4.7300 c3         1 95E       0.007900
      7 N9           2.6590     2.6920     3.8980 n7         1 95E      -0.582200
      8 C8           2.5960     1.3250     3.3620 c3         1 95E       0.137300
      9 C7           2.0830     1.3670     1.9210 c3         1 95E       0.137300
     10 N6           2.0200     0.0000     1.3850 n7         1 95E      -0.582200
     11 C3           1.5300     0.0000     0.0000 c3         1 95E       0.112000
     12 O1          -0.4760    -1.2210     0.5690 oh         1 95E      -0.591800
     13 C4           2.0400    -1.2490    -0.7220 c3         1 95E      -0.018400
     14 C5           3.5650    -1.1880    -0.8320 c3         1 95E       0.007900
     15 H1          -0.3610     0.0890    -1.0170 h1         1 95E      -0.008800
     16 H2          -0.3610     0.8370     0.5860 h1         1 95E      -0.008800
     17 H3           0.3790     3.4140     6.8030 ho         1 95E       0.391000
     18 H5           2.3530     2.3530     7.2510 h1         1 95E      -0.008800
     19 H6           3.8880     1.9100     5.4040 h1         1 95E       0.038700
     20 H7           4.0660     4.0790     6.6450 hc         1 95E       0.019200
     21 H8           3.0720     4.8370     5.3930 hc         1 95E       0.019200
     22 H9           5.5980     5.0870     5.1010 hc         1 95E       0.002200
     23 H10          5.6400     3.3500     4.7680 hc         1 95E       0.002200
     24 H11          4.7280     4.4320     3.7070 hc         1 95E       0.002200
     25 H12          1.7480     3.1050     3.8660 hn         1 95E       0.268800
     26 H14          3.5860     0.8840     3.3800 h1         1 95E       0.010700
     27 H15          1.9240     0.7300     3.9680 h1         1 95E       0.010700
     28 H16          1.0930     1.8080     1.9030 h1         1 95E       0.010700
     29 H17          2.7550     1.9620     1.3150 h1         1 95E       0.010700
     30 H18          1.4110    -0.5540     1.9540 hn         1 95E       0.268800
     31 H20          1.8910     0.8850    -0.5110 h1         1 95E       0.038700
     32 H21         -1.4160    -1.2530     0.5020 ho         1 95E       0.391000
     33 H22          1.6080    -1.2940    -1.7140 hc         1 95E       0.019200
     34 H23          1.7540    -2.1310    -0.1620 hc         1 95E       0.019200
     35 H24          4.0050    -1.3640     0.1420 hc         1 95E       0.002200
     36 H25          3.8620    -0.2100    -1.1910 hc         1 95E       0.002200
     37 H26          3.9080    -1.9470    -1.5250 hc         1 95E       0.002200
     38 H4           1.4760     1.5240     5.9580 h1         1 95E      -0.008800
@<TRIPOS>BOND
     1     1    11 1   
     2     1    12 1   
     3     1    15 1   
     4     1    16 1   
     5     2     3 1   
     6     2    17 1   
     7     3     4 1   
     8     3    18 1   
     9     3    38 1   
    10     4     5 1   
    11     4     7 1   
    12     4    19 1   
    13     5     6 1   
    14     5    20 1   
    15     5    21 1   
    16     6    22 1   
    17     6    23 1   
    18     6    24 1   
    19     7     8 1   
    20     7    25 1   
    21     8     9 1   
    22     8    26 1   
    23     8    27 1   
    24     9    10 1   
    25     9    28 1   
    26     9    29 1   
    27    10    11 1   
    28    10    30 1   
    29    11    13 1   
    30    11    31 1   
    31    12    32 1   
    32    13    14 1   
    33    13    33 1   
    34    13    34 1   
    35    14    35 1   
    36    14    36 1   
    37    14    37 1   
@<TRIPOS>SUBSTRUCTURE
     1 95E         1 TEMP              0 ****  ****    0 ROOT
