@<TRIPOS>MOLECULE
95G
   38    40     1     0     0
SMALL
bcc


@<TRIPOS>ATOM
      1 C5           0.0000     0.0000     0.0000 ca         1 95G       0.179100
      2 C6          -4.1670    -0.6580    -1.0430 cc         1 95G       0.392300
      3 C9          -2.3890     2.4860    -1.1170 c3         1 95G       0.018600
      4 C10          1.3880     0.0000     0.0000 ca         1 95G      -0.198500
      5 C3          -2.8390    -1.0980    -1.0950 cc         1 95G      -0.276900
      6 C1          -2.0370     0.0010    -1.1270 cd         1 95G      -0.039200
      7 C11         -0.6920     0.0050     1.2030 ca         1 95G      -0.198500
      8 C15          1.3860    -0.0010     2.3950 ca         1 95G      -0.197500
      9 C14          0.0030     0.0040     2.3970 ca         1 95G       0.056500
     10 C13          2.0770     0.0000     1.1960 ca         1 95G       0.056500
     11 O2          -0.6810     0.0000    -1.1770 os         1 95G      -0.181200
     12 C21         -1.5710     5.0010     5.5830 cc         1 95G       0.407200
     13 C22         -1.0710     6.2000     5.8910 cd         1 95G      -0.036300
     14 C24          0.5760     4.4710     5.2910 cd         1 95G       0.418300
     15 C27          1.4610     2.3690     4.6400 c          1 95G       0.609100
     16 N19          2.5130     1.5800     4.3440 ns         1 95G      -0.316300
     17 N20         -0.6640     4.0940     5.2660 nc         1 95G      -0.554000
     18 N26          1.6610     3.6570     4.9870 ns         1 95G      -0.078400
     19 N4          -2.8360     1.0910    -1.0990 na         1 95G       0.493400
     20 N8          -4.1650     0.6510    -1.0500 nd         1 95G      -0.616800
     21 O17          1.3880    -0.5470     4.8920 o          1 95G      -0.564800
     22 O18          3.5510    -0.5450     3.6410 o          1 95G      -0.564800
     23 O28          0.3320     1.9200     4.5940 o          1 95G      -0.603100
     24 S16          2.2680    -0.0010     3.9200 sy         1 95G       1.055900
     25 S23          0.6820     6.1160     5.7440 ss         1 95G      -0.292300
     26 Cl7         -2.3110    -2.7510    -1.1110 cl         1 95G       0.050600
     27 H1          -3.1430     3.1000    -1.5950 h1         1 95G       0.029367
     28 H2          -2.2350     2.8290    -0.1010 h1         1 95G       0.029367
     29 H3          -1.4590     2.5610    -1.6680 h1         1 95G       0.029367
     30 H4           1.9300    -0.0010    -0.9380 ha         1 95G       0.128000
     31 H5          -1.7750     0.0060     1.2060 ha         1 95G       0.128000
     32 H6          -0.5360     0.0050     3.3370 ha         1 95G       0.135000
     33 H7           3.1600    -0.0020     1.1970 ha         1 95G       0.135000
     34 H8          -2.6330     4.7880     5.5950 h4         1 95G       0.013100
     35 H9           3.4440     1.9410     4.4140 hn         1 95G       0.222500
     36 H10          2.5900     4.0270     5.0210 hn         1 95G       0.170500
     37 Cl1         -5.5730    -1.6730    -0.9870 cl         1 95G      -0.023000
     38 Br25        -2.0710     7.7240     6.3940 br         1 95G      -0.013100
@<TRIPOS>BOND
     1     1     4 ar  
     2     1     7 ar  
     3     1    11 1   
     4     2     5 1   
     5     2    20 2   
     6     2    37 1   
     7     3    19 1   
     8     3    27 1   
     9     3    28 1   
    10     3    29 1   
    11     4    10 ar  
    12     4    30 1   
    13     5     6 2   
    14     5    26 1   
    15     6    11 1   
    16     6    19 1   
    17     7     9 ar  
    18     7    31 1   
    19     8     9 ar  
    20     8    10 ar  
    21     8    24 1   
    22     9    32 1   
    23    10    33 1   
    24    12    13 2   
    25    12    17 1   
    26    12    34 1   
    27    13    25 1   
    28    13    38 1   
    29    14    17 2   
    30    14    18 1   
    31    14    25 1   
    32    15    16 1   
    33    15    18 1   
    34    15    23 2   
    35    16    24 1   
    36    16    35 1   
    37    18    36 1   
    38    19    20 1   
    39    21    24 2   
    40    22    24 2   
@<TRIPOS>SUBSTRUCTURE
     1 95G         1 TEMP              0 ****  ****    0 ROOT
