@<TRIPOS>MOLECULE
molecule
   38    40     1     0     0
SMALL
bcc


@<TRIPOS>ATOM
      1 C5           0.0000     0.0000     0.0000 ca         1 95G       0.177100
      2 C6          -4.1670    -0.6580    -1.0430 cc         1 95G       0.448300
      3 C9          -2.3890     2.4860    -1.1170 c3         1 95G       0.059600
      4 C10          1.3880     0.0000     0.0000 ca         1 95G      -0.200500
      5 C3          -2.8390    -1.0980    -1.0950 cc         1 95G      -0.181900
      6 C1          -2.0370     0.0010    -1.1270 cd         1 95G       0.114800
      7 C11         -0.6920     0.0050     1.2030 ca         1 95G      -0.200500
      8 C15          1.3860    -0.0010     2.3950 ca         1 95G      -0.347500
      9 C14          0.0030     0.0040     2.3970 ca         1 95G       0.018500
     10 C13          2.0770     0.0000     1.1960 ca         1 95G       0.018500
     11 O2          -0.6810     0.0000    -1.1770 os         1 95G      -0.209200
     12 C21         -1.5710     5.0010     5.5830 cc         1 95G       0.435200
     13 C22         -1.0710     6.2000     5.8910 cd         1 95G      -0.115300
     14 C24          0.5760     4.4710     5.2910 cd         1 95G       0.582300
     15 C27          1.4610     2.3690     4.6400 c          1 95G       0.789100
     16 N19          2.5130     1.5800     4.3440 ns         1 95G      -0.663300
     17 N20         -0.6640     4.0940     5.2660 nc         1 95G      -0.681000
     18 N26          1.6610     3.6570     4.9870 ns         1 95G      -0.533400
     19 N4          -2.8360     1.0910    -1.0990 na         1 95G       0.071400
     20 N8          -4.1650     0.6510    -1.0500 nd         1 95G      -0.474800
     21 O17          1.3880    -0.5470     4.8920 o          1 95G      -0.610300
     22 O18          3.5510    -0.5450     3.6410 o          1 95G      -0.610300
     23 O28          0.3320     1.9200     4.5940 o          1 95G      -0.554100
     24 S16          2.2680    -0.0010     3.9200 sy         1 95G       1.430900
     25 S23          0.6820     6.1160     5.7440 ss         1 95G      -0.177300
     26 Cl7         -2.3110    -2.7510    -1.1110 cl         1 95G      -0.045400
     27 H1          -3.1430     3.1000    -1.5950 h1         1 95G       0.065700
     28 H2          -2.2350     2.8290    -0.1010 h1         1 95G       0.065700
     29 H3          -1.4590     2.5610    -1.6680 h1         1 95G       0.065700
     30 H4           1.9300    -0.0010    -0.9380 ha         1 95G       0.154500
     31 H5          -1.7750     0.0060     1.2060 ha         1 95G       0.154500
     32 H6          -0.5360     0.0050     3.3370 ha         1 95G       0.166500
     33 H7           3.1600    -0.0020     1.1970 ha         1 95G       0.166500
     34 H8          -2.6330     4.7880     5.5950 h4         1 95G       0.062100
     35 H9           3.4440     1.9410     4.4140 hn         1 95G       0.339500
     36 H10          2.5900     4.0270     5.0210 hn         1 95G       0.336500
     37 Cl1         -5.5730    -1.6730    -0.9870 cl         1 95G      -0.098000
     38 Br25        -2.0710     7.7240     6.3940 br         1 95G      -0.020100
@<TRIPOS>BOND
     1    17    12 1
     2    17    14 2
     3    18    14 1
     4    18    15 1
     5     9     7 ar
     6     9     8 ar
     7     7     1 ar
     8    12    13 2
     9    16    15 1
    10    16    24 1
    11    21    24 2
    12    14    25 1
    13    15    23 2
    14    24     8 1
    15    24    22 2
    16     8    10 ar
    17     1    11 1
    18     1     4 ar
    19    11     6 1
    20    13    25 1
    21    13    38 1
    22     3    19 1
    23    10     4 ar
    24     6    19 1
    25     6     5 2
    26    19    20 1
    27    20     2 2
    28     5    26 1
    29     5     2 1
    30     2    37 1
    31     3    27 1
    32     3    28 1
    33     3    29 1
    34     4    30 1
    35     7    31 1
    36     9    32 1
    37    10    33 1
    38    12    34 1
    39    16    35 1
    40    18    36 1
@<TRIPOS>SUBSTRUCTURE
     1 95G         1 TEMP              0 ****  ****    0 ROOT
