@<TRIPOS>MOLECULE
molecule
   49    50     1     0     0
SMALL
bcc


@<TRIPOS>ATOM
      1 O17          0.0000     0.0000     0.0000 oh         1 95H      -0.584800
      2 O14          1.7890     2.4390     5.7070 oh         1 95H      -0.596800
      3 C5          -0.5830     2.3900     2.7960 c3         1 95H       0.227200
      4 C8           1.4290     0.0000     0.0000 c3         1 95H       0.133100
      5 O10          1.5100     0.0560     4.2650 oh         1 95H      -0.581800
      6 C4          -0.1530     2.4360     4.2640 c3         1 95H       0.128100
      7 C3           1.3770     2.4700     4.3400 c3         1 95H       0.119100
      8 C2           1.9410     1.2480     3.6070 c3         1 95H       0.109100
      9 C1           1.4300     1.2480     2.1630 c3         1 95H       0.129100
     10 C18          5.5580    -1.1620     1.3380 ca         1 95H      -0.108600
     11 C19          6.2580    -2.3640     1.2330 ca         1 95H      -0.097000
     12 C20          7.6380    -2.3570     1.2320 ca         1 95H      -0.079000
     13 C21          8.3260    -1.1610     1.3370 ca         1 95H      -0.136200
     14 C22          7.6380     0.0340     1.4430 ca         1 95H      -0.079000
     15 C23          6.2580     0.0410     1.4370 ca         1 95H      -0.097000
     16 C7           1.9400     0.0000     1.4420 c3         1 95H       0.130700
     17 C9           1.9390    -1.2490    -0.7220 c3         1 95H      -0.130100
     18 N13          3.4050     0.0010     1.4410 ns         1 95H      -0.577900
     19 N24          9.8070    -1.1610     1.3370 no         1 95H       0.290200
     20 O11          3.4710    -2.2110     1.2470 o          1 95H      -0.584100
     21 O15         -0.6870     3.6080     4.8820 oh         1 95H      -0.588800
     22 O26         10.4160    -0.1100     1.4290 o          1 95H      -0.198500
     23 O27         10.4150    -2.2120     1.2450 o          1 95H      -0.198500
     24 O6           0.0010     1.2480     2.1660 os         1 95H      -0.357600
     25 H1          -0.3140    -0.1300    -0.8790 ho         1 95H       0.401000
     26 H2           2.3010     3.2060     5.8990 ho         1 95H       0.409000
     27 H3          -1.6620     2.3190     2.7400 h2         1 95H       0.104700
     28 H4           1.7900     0.8850    -0.5110 h1         1 95H       0.023700
     29 H5           2.1800    -0.2320     4.8630 ho         1 95H       0.411000
     30 H6          -0.5190     1.5530     4.7740 h1         1 95H       0.083700
     31 H7           1.7410     3.3750     3.8670 h1         1 95H       0.061700
     32 H8           3.0230     1.2960     3.6060 h1         1 95H       0.036700
     33 H9           1.7870     2.1360     1.6560 h1         1 95H       0.064700
     34 H10          5.7200    -3.3010     1.1510 ha         1 95H       0.158000
     35 H11          8.1840    -3.2890     1.1500 ha         1 95H       0.172000
     36 H12          8.1830     0.9670     1.5220 ha         1 95H       0.172000
     37 H13          5.7200     0.9770     1.5200 ha         1 95H       0.158000
     38 H14         -1.3940     4.7360     0.1670 h1         1 95H       0.062367
     39 H15         -1.5770     2.9860     0.3550 h1         1 95H       0.062367
     40 H16         -0.1340     3.6460    -0.4280 h1         1 95H       0.062367
     41 H17          1.5800    -0.8850     1.9530 h1         1 95H       0.121700
     42 H18          1.4230    -1.3550    -1.6690 hc         1 95H       0.048700
     43 H19          3.0030    -1.1530    -0.9000 hc         1 95H       0.048700
     44 H20          1.7520    -2.1220    -0.1090 hc         1 95H       0.048700
     45 H21          3.9040     0.8680     1.4610 hn         1 95H       0.313500
     46 H22         -1.4020     3.3670     5.4490 ho         1 95H       0.408000
     47 S16         -0.0230     3.8970     1.9550 ss         1 95H      -0.385200
     48 C12          4.0790    -1.1630     1.3380 c          1 95H       0.669700
     49 C25         -0.8690     3.8060     0.3520 c3         1 95H       0.010000
@<TRIPOS>BOND
     1     5     8 1
     2     2     7 1
     3     6    21 1
     4     6     7 1
     5     6     3 1
     6     7     8 1
     7     3    24 1
     8     3    47 1
     9     8     9 1
    10    24     9 1
    11     9    16 1
    12    20    48 2
    13    16     4 1
    14    16    18 1
    15    49    47 1
    16     4     1 1
    17     4    17 1
    18    48    18 1
    19    48    10 1
    20    10    11 ar
    21    10    15 ar
    22    11    12 ar
    23    15    14 ar
    24    12    13 ar
    25    14    13 ar
    26    13    19 1
    27    19    23 1
    28    19    22 1
    29     1    25 1
    30     2    26 1
    31     3    27 1
    32     4    28 1
    33     5    29 1
    34     6    30 1
    35     7    31 1
    36     8    32 1
    37     9    33 1
    38    11    34 1
    39    12    35 1
    40    14    36 1
    41    15    37 1
    42    49    38 1
    43    49    39 1
    44    49    40 1
    45    16    41 1
    46    17    42 1
    47    17    43 1
    48    17    44 1
    49    18    45 1
    50    21    46 1
@<TRIPOS>SUBSTRUCTURE
     1 95H         1 TEMP              0 ****  ****    0 ROOT
