@<TRIPOS>MOLECULE
molecule
   55    57     1     0     0
SMALL
bcc


@<TRIPOS>ATOM
      1 Br7          0.0000     0.0000     0.0000 br         1 95K      -0.098100
      2 C2           1.8920     0.0000     0.0000 ca         1 95K      -0.020900
      3 C3           2.5830     0.0000     1.1980 ca         1 95K      -0.100000
      4 C4           3.9650     0.0010     1.1980 ca         1 95K      -0.124500
      5 C5           4.6560     0.0000     0.0000 ca         1 95K      -0.072300
      6 C6           3.9650    -0.0010    -1.1970 ca         1 95K      -0.124500
      7 C1           2.5820    -0.0060    -1.1970 ca         1 95K      -0.100000
      8 C8           6.1630     0.0010    -0.0000 c3         1 95K      -0.040100
      9 C9           6.6740    -1.4420     0.0010 c3         1 95K       0.159800
     10 N10          8.1420    -1.4410     0.0010 n3         1 95K      -0.724600
     11 C23          8.6690    -0.8830     1.2540 c3         1 95K       0.157800
     12 C24         10.1780    -0.6680     1.1220 c3         1 95K      -0.076700
     13 C26         10.4490     0.3990     0.0580 c3         1 95K      -0.085600
     14 C25         10.7460    -0.2050     2.4650 c3         1 95K      -0.085600
     15 C11          8.6690    -2.7910    -0.2360 c3         1 95K       0.163500
     16 C16          8.0550    -3.7650     0.7720 c3         1 95K      -0.100400
     17 C15          8.5600    -5.1810     0.4810 c3         1 95K       0.174300
     18 N14          8.1870    -5.5630    -0.8860 nh         1 95K      -0.691300
     19 C13          8.8040    -4.6700    -1.8750 c3         1 95K       0.174300
     20 C12          8.3060    -3.2410    -1.6550 c3         1 95K      -0.100400
     21 C17          8.5160    -6.8890    -1.1390 cc         1 95K       0.585400
     22 N21          8.3080    -7.5580    -2.3120 na         1 95K      -0.490700
     23 C20          8.7730    -8.8330    -2.1580 cc         1 95K       0.631400
     24 N22          8.7480    -9.8330    -3.1220 nv         1 95K      -1.046500
     25 N19          9.2450    -8.9490    -0.9420 nd         1 95K      -0.361000
     26 N18          9.0830    -7.7160    -0.2960 nd         1 95K      -0.411000
     27 H1           2.0410     0.0000     2.1360 ha         1 95K       0.144000
     28 H2           4.5070     0.0010     2.1360 ha         1 95K       0.137000
     29 H3           4.5070    -0.0030    -2.1350 ha         1 95K       0.137000
     30 H4           2.0400    -0.0070    -2.1350 ha         1 95K       0.144000
     31 H5           6.5230     0.5120    -0.8850 hc         1 95K       0.058200
     32 H6           6.5240     0.5130     0.8840 hc         1 95K       0.058200
     33 H7           6.3130    -1.9530    -0.8840 h1         1 95K       0.042700
     34 H8           6.3130    -1.9520     0.8850 h1         1 95K       0.042700
     35 H10          8.1850     0.0640     1.4580 h1         1 95K       0.038200
     36 H11          8.4720    -1.5720     2.0670 h1         1 95K       0.038200
     37 H12         10.6510    -1.5970     0.8300 hc         1 95K       0.050700
     38 H13          9.9170     1.3070     0.3130 hc         1 95K       0.035533
     39 H14         10.1100     0.0410    -0.9070 hc         1 95K       0.035533
     40 H15         11.5120     0.6030     0.0140 hc         1 95K       0.035533
     41 H16         10.2670     0.7210     2.7610 hc         1 95K       0.035533
     42 H17         10.5610    -0.9630     3.2160 hc         1 95K       0.035533
     43 H18         11.8130    -0.0440     2.3690 hc         1 95K       0.035533
     44 H19          9.7470    -2.7890    -0.1240 h1         1 95K       0.069700
     45 H20          6.9750    -3.7420     0.6830 hc         1 95K       0.059450
     46 H21          8.3460    -3.4770     1.7750 hc         1 95K       0.059450
     47 H22          9.6390    -5.2050     0.5790 h1         1 95K       0.050950
     48 H23          8.1130    -5.8740     1.1830 h1         1 95K       0.050950
     49 H24          8.5330    -4.9960    -2.8720 h1         1 95K       0.050950
     50 H25          9.8810    -4.6980    -1.7620 h1         1 95K       0.050950
     51 H26          7.2300    -3.2110    -1.7780 hc         1 95K       0.059450
     52 H27          8.7750    -2.5810    -2.3740 hc         1 95K       0.059450
     53 H28          7.8510    -7.1930    -3.1240 hn         1 95K       0.297700
     54 H29          7.9310   -10.4010    -3.2340 hn         1 95K       0.445300
     55 H30          9.5560   -10.0010    -3.6890 hn         1 95K       0.445300
@<TRIPOS>BOND
     1    24    23 1
     2    23    22 1
     3    23    25 2
     4    22    21 1
     5    25    26 1
     6    21    26 2
     7    21    18 1
     8    17    18 1
     9    17    16 1
    10    18    19 1
    11     3     4 ar
    12     3     2 ar
    13     4     5 ar
    14    16    15 1
    15     1     2 1
    16     2     7 ar
    17    19    20 1
    18     5     8 1
    19     5     6 ar
    20     8     9 1
    21    15    20 1
    22    15    10 1
    23     7     6 ar
    24     9    10 1
    25    10    11 1
    26    11    12 1
    27    12    14 1
    28    12    13 1
    29     3    27 1
    30     4    28 1
    31     6    29 1
    32     7    30 1
    33     8    31 1
    34     8    32 1
    35     9    33 1
    36     9    34 1
    37    11    35 1
    38    11    36 1
    39    12    37 1
    40    13    38 1
    41    13    39 1
    42    13    40 1
    43    14    41 1
    44    14    42 1
    45    14    43 1
    46    15    44 1
    47    16    45 1
    48    16    46 1
    49    17    47 1
    50    17    48 1
    51    19    49 1
    52    19    50 1
    53    20    51 1
    54    20    52 1
    55    22    53 1
    56    24    54 1
    57    24    55 1
@<TRIPOS>SUBSTRUCTURE
     1 95K         1 TEMP              0 ****  ****    0 ROOT
