@<TRIPOS>MOLECULE
95K
   55    57     1     0     0
SMALL
bcc


@<TRIPOS>ATOM
      1 Br7          0.0000     0.0000     0.0000 br         1 95K      -0.133100
      2 C2           1.8920     0.0000     0.0000 ca         1 95K       0.032100
      3 C3           2.5830     0.0000     1.1980 ca         1 95K      -0.080500
      4 C4           3.9650     0.0010     1.1980 ca         1 95K      -0.094500
      5 C5           4.6560     0.0000     0.0000 ca         1 95K      -0.082300
      6 C6           3.9650    -0.0010    -1.1970 ca         1 95K      -0.094500
      7 C1           2.5820    -0.0060    -1.1970 ca         1 95K      -0.080500
      8 C8           6.1630     0.0010    -0.0000 c3         1 95K       0.020900
      9 C9           6.6740    -1.4420     0.0010 c3         1 95K       0.133800
     10 N10          8.1420    -1.4410     0.0010 n3         1 95K      -0.530600
     11 C23          8.6690    -0.8830     1.2540 c3         1 95K       0.132800
     12 C24         10.1780    -0.6680     1.1220 c3         1 95K      -0.060700
     13 C26         10.4490     0.3990     0.0580 c3         1 95K       0.007400
     14 C25         10.7460    -0.2050     2.4650 c3         1 95K       0.007400
     15 C11          8.6690    -2.7910    -0.2360 c3         1 95K       0.115500
     16 C16          8.0550    -3.7650     0.7720 c3         1 95K      -0.055400
     17 C15          8.5600    -5.1810     0.4810 c3         1 95K       0.150800
     18 N14          8.1870    -5.5630    -0.8860 nh         1 95K      -0.450300
     19 C13          8.8040    -4.6700    -1.8750 c3         1 95K       0.150800
     20 C12          8.3060    -3.2410    -1.6550 c3         1 95K      -0.055400
     21 C17          8.5160    -6.8890    -1.1390 cc         1 95K       0.345400
     22 N21          8.3080    -7.5580    -2.3120 na         1 95K       0.012300
     23 C20          8.7730    -8.8330    -2.1580 cc         1 95K       0.324400
     24 N22          8.7480    -9.8330    -3.1220 nv         1 95K      -0.589500
     25 N19          9.2450    -8.9490    -0.9420 nd         1 95K      -0.344000
     26 N18          9.0830    -7.7160    -0.2960 nd         1 95K      -0.405000
     27 H1           2.0410     0.0000     2.1360 ha         1 95K       0.116500
     28 H2           4.5070     0.0010     2.1360 ha         1 95K       0.110500
     29 H3           4.5070    -0.0030    -2.1350 ha         1 95K       0.110500
     30 H4           2.0400    -0.0070    -2.1350 ha         1 95K       0.116500
     31 H5           6.5230     0.5120    -0.8850 hc         1 95K       0.029200
     32 H6           6.5240     0.5130     0.8840 hc         1 95K       0.029200
     33 H7           6.3130    -1.9530    -0.8840 h1         1 95K       0.022200
     34 H8           6.3130    -1.9520     0.8850 h1         1 95K       0.022200
     35 H10          8.1850     0.0640     1.4580 h1         1 95K       0.020200
     36 H11          8.4720    -1.5720     2.0670 h1         1 95K       0.020200
     37 H12         10.6510    -1.5970     0.8300 hc         1 95K       0.030700
     38 H13          9.9170     1.3070     0.3130 hc         1 95K       0.004533
     39 H14         10.1100     0.0410    -0.9070 hc         1 95K       0.004533
     40 H15         11.5120     0.6030     0.0140 hc         1 95K       0.004533
     41 H16         10.2670     0.7210     2.7610 hc         1 95K       0.004533
     42 H17         10.5610    -0.9630     3.2160 hc         1 95K       0.004533
     43 H18         11.8130    -0.0440     2.3690 hc         1 95K       0.004533
     44 H19          9.7470    -2.7890    -0.1240 h1         1 95K       0.049700
     45 H20          6.9750    -3.7420     0.6830 hc         1 95K       0.033950
     46 H21          8.3460    -3.4770     1.7750 hc         1 95K       0.033950
     47 H22          9.6390    -5.2050     0.5790 h1         1 95K       0.023200
     48 H23          8.1130    -5.8740     1.1830 h1         1 95K       0.023200
     49 H24          8.5330    -4.9960    -2.8720 h1         1 95K       0.023200
     50 H25          9.8810    -4.6980    -1.7620 h1         1 95K       0.023200
     51 H26          7.2300    -3.2110    -1.7780 hc         1 95K       0.033950
     52 H27          8.7750    -2.5810    -2.3740 hc         1 95K       0.033950
     53 H28          7.8510    -7.1930    -3.1240 hn         1 95K       0.137700
     54 H29          7.9310   -10.4010    -3.2340 hn         1 95K       0.276300
     55 H30          9.5560   -10.0010    -3.6890 hn         1 95K       0.276300
@<TRIPOS>BOND
     1     1     2 1   
     2     2     3 ar  
     3     2     7 ar  
     4     3     4 ar  
     5     3    27 1   
     6     4     5 ar  
     7     4    28 1   
     8     5     6 ar  
     9     5     8 1   
    10     6     7 ar  
    11     6    29 1   
    12     7    30 1   
    13     8     9 1   
    14     8    31 1   
    15     8    32 1   
    16     9    10 1   
    17     9    33 1   
    18     9    34 1   
    19    10    11 1   
    20    10    15 1   
    21    11    12 1   
    22    11    35 1   
    23    11    36 1   
    24    12    13 1   
    25    12    14 1   
    26    12    37 1   
    27    13    38 1   
    28    13    39 1   
    29    13    40 1   
    30    14    41 1   
    31    14    42 1   
    32    14    43 1   
    33    15    16 1   
    34    15    20 1   
    35    15    44 1   
    36    16    17 1   
    37    16    45 1   
    38    16    46 1   
    39    17    18 1   
    40    17    47 1   
    41    17    48 1   
    42    18    19 1   
    43    18    21 1   
    44    19    20 1   
    45    19    49 1   
    46    19    50 1   
    47    20    51 1   
    48    20    52 1   
    49    21    22 1   
    50    21    26 2   
    51    22    23 1   
    52    22    53 1   
    53    23    24 1   
    54    23    25 2   
    55    24    54 1   
    56    24    55 1   
    57    25    26 1   
@<TRIPOS>SUBSTRUCTURE
     1 95K         1 TEMP              0 ****  ****    0 ROOT
