@<TRIPOS>MOLECULE
95M
   36    37     1     0     0
SMALL
bcc


@<TRIPOS>ATOM
      1 C6           0.0000     0.0000     0.0000 c          1 95M       0.600100
      2 C10         -4.4930     0.0150     1.5700 cc         1 95M      -0.037300
      3 C3          -2.0640     0.0050     1.1680 cc         1 95M       0.420300
      4 C2           1.8190     1.5370    -2.2340 cc         1 95M      -0.057600
      5 C11          0.9700     3.4900    -3.5580 cc         1 95M       0.057600
      6 C14          2.0490     3.7410    -2.8150 cd         1 95M      -0.181000
      7 C13         -4.1140     0.0160     0.2900 cd         1 95M       0.409200
      8 C12          2.5170     2.6630    -2.0830 cd         1 95M       0.007000
      9 C19          0.2700     4.4920    -4.4390 c3         1 95M       0.060900
     10 C20          0.8780     4.4500    -5.8420 c3         1 95M      -0.053700
     11 C21          0.5980     3.0860    -6.4780 c3         1 95M      -0.000600
     12 C22          0.2540     5.5500    -6.7020 c3         1 95M      -0.000600
     13 N4           1.3480     0.0000     0.0000 ns         1 95M      -0.313300
     14 N8          -0.6740     0.0000     1.1670 ns         1 95M      -0.079400
     15 N9          -2.8070     0.0120     0.1060 nd         1 95M      -0.550000
     16 O15          1.5940    -1.0100    -2.2370 o          1 95M      -0.556300
     17 O16          3.5560     0.0400    -1.1000 o          1 95M      -0.556300
     18 O17         -0.6080     0.0050    -1.0520 o          1 95M      -0.582100
     19 S1           2.1760     0.0070    -1.4340 sy         1 95M       1.077900
     20 S5          -3.0430     0.0060     2.5700 ss         1 95M      -0.296300
     21 S7           0.4870     1.8120    -3.3480 ss         1 95M      -0.133800
     22 H1           2.5220     4.7150    -2.7850 ha         1 95M       0.126000
     23 H2          -4.8210     0.0220    -0.5300 h4         1 95M       0.012100
     24 H3           3.3850     2.7300    -1.4380 ha         1 95M       0.125000
     25 H4           0.3910     5.4850    -4.0230 hc         1 95M       0.027200
     26 H5          -0.7850     4.2500    -4.4950 hc         1 95M       0.027200
     27 H6           1.9480     4.6050    -5.7780 hc         1 95M       0.029700
     28 H7           1.3380     2.3710    -6.1400 hc         1 95M       0.007367
     29 H8          -0.3900     2.7490    -6.1880 hc         1 95M       0.007367
     30 H9           0.6470     3.1740    -7.5570 hc         1 95M       0.007367
     31 H10         -0.8120     5.3770    -6.7920 hc         1 95M       0.007367
     32 H11          0.4250     6.5130    -6.2370 hc         1 95M       0.007367
     33 H12          0.7050     5.5390    -7.6870 hc         1 95M       0.007367
     34 H13          1.8480    -0.0280     0.8660 hn         1 95M       0.221500
     35 H14         -0.1730    -0.0040     2.0340 hn         1 95M       0.169500
     36 Br18        -6.2770     0.0290     2.2000 br         1 95M      -0.017100
@<TRIPOS>BOND
     1     1    13 1   
     2     1    14 1   
     3     1    18 2   
     4     2     7 2   
     5     2    20 1   
     6     2    36 1   
     7     3    14 1   
     8     3    15 2   
     9     3    20 1   
    10     4     8 2   
    11     4    19 1   
    12     4    21 1   
    13     5     6 2   
    14     5     9 1   
    15     5    21 1   
    16     6     8 1   
    17     6    22 1   
    18     7    15 1   
    19     7    23 1   
    20     8    24 1   
    21     9    10 1   
    22     9    25 1   
    23     9    26 1   
    24    10    11 1   
    25    10    12 1   
    26    10    27 1   
    27    11    28 1   
    28    11    29 1   
    29    11    30 1   
    30    12    31 1   
    31    12    32 1   
    32    12    33 1   
    33    13    19 1   
    34    13    34 1   
    35    14    35 1   
    36    16    19 2   
    37    17    19 2   
@<TRIPOS>SUBSTRUCTURE
     1 95M         1 TEMP              0 ****  ****    0 ROOT
