@<TRIPOS>MOLECULE
molecule
   36    37     1     0     0
SMALL
bcc


@<TRIPOS>ATOM
      1 C6           0.0000     0.0000     0.0000 c          1 95M       0.787100
      2 C10         -4.4930     0.0150     1.5700 cc         1 95M      -0.116300
      3 C3          -2.0640     0.0050     1.1680 cd         1 95M       0.586300
      4 C2           1.8190     1.5370    -2.2340 cd         1 95M      -0.292600
      5 C11          0.9700     3.4900    -3.5580 cd         1 95M      -0.002400
      6 C14          2.0490     3.7410    -2.8150 cc         1 95M      -0.198000
      7 C13         -4.1140     0.0160     0.2900 cc         1 95M       0.436200
      8 C12          2.5170     2.6630    -2.0830 cc         1 95M      -0.024000
      9 C19          0.2700     4.4920    -4.4390 c3         1 95M      -0.008100
     10 C20          0.8780     4.4500    -5.8420 c3         1 95M      -0.074700
     11 C21          0.5980     3.0860    -6.4780 c3         1 95M      -0.091100
     12 C22          0.2540     5.5500    -6.7020 c3         1 95M      -0.091100
     13 N4           1.3480     0.0000     0.0000 ns         1 95M      -0.661300
     14 N8          -0.6740     0.0000     1.1670 ns         1 95M      -0.533400
     15 N9          -2.8070     0.0120     0.1060 nc         1 95M      -0.679000
     16 O15          1.5940    -1.0100    -2.2370 o          1 95M      -0.608800
     17 O16          3.5560     0.0400    -1.1000 o          1 95M      -0.608800
     18 O17         -0.6080     0.0050    -1.0520 o          1 95M      -0.546100
     19 S1           2.1760     0.0070    -1.4340 sy         1 95M       1.454900
     20 S5          -3.0430     0.0060     2.5700 ss         1 95M      -0.181300
     21 S7           0.4870     1.8120    -3.3480 ss         1 95M       0.039200
     22 H1           2.5220     4.7150    -2.7850 ha         1 95M       0.150000
     23 H2          -4.8210     0.0220    -0.5300 h4         1 95M       0.061100
     24 H3           3.3850     2.7300    -1.4380 ha         1 95M       0.155000
     25 H4           0.3910     5.4850    -4.0230 hc         1 95M       0.057700
     26 H5          -0.7850     4.2500    -4.4950 hc         1 95M       0.057700
     27 H6           1.9480     4.6050    -5.7780 hc         1 95M       0.056700
     28 H7           1.3380     2.3710    -6.1400 hc         1 95M       0.037367
     29 H8          -0.3900     2.7490    -6.1880 hc         1 95M       0.037367
     30 H9           0.6470     3.1740    -7.5570 hc         1 95M       0.037367
     31 H10         -0.8120     5.3770    -6.7920 hc         1 95M       0.037367
     32 H11          0.4250     6.5130    -6.2370 hc         1 95M       0.037367
     33 H12          0.7050     5.5390    -7.6870 hc         1 95M       0.037367
     34 H13          1.8480    -0.0280     0.8660 hn         1 95M       0.338500
     35 H14         -0.1730    -0.0040     2.0340 hn         1 95M       0.335500
     36 Br18        -6.2770     0.0290     2.2000 br         1 95M      -0.023100
@<TRIPOS>BOND
     1    11    10 1
     2    15     7 1
     3    15     3 2
     4     6     8 1
     5     6     5 2
     6     8     4 2
     7    14     3 1
     8    14     1 1
     9    10     9 1
    10    10    12 1
    11     7     2 2
    12    13     1 1
    13    13    19 1
    14     3    20 1
    15     5     9 1
    16     5    21 1
    17    16    19 2
    18     4    19 1
    19     4    21 1
    20     1    18 2
    21    19    17 2
    22     2    20 1
    23     2    36 1
    24     6    22 1
    25     7    23 1
    26     8    24 1
    27     9    25 1
    28     9    26 1
    29    10    27 1
    30    11    28 1
    31    11    29 1
    32    11    30 1
    33    12    31 1
    34    12    32 1
    35    12    33 1
    36    13    34 1
    37    14    35 1
@<TRIPOS>SUBSTRUCTURE
     1 95M         1 TEMP              0 ****  ****    0 ROOT
