@<TRIPOS>MOLECULE
molecule
   46    48     1     0     0
SMALL
bcc


@<TRIPOS>ATOM
      1 Br7          0.0000     0.0000     0.0000 br         1 95N      -0.097100
      2 C2           1.8910     0.0000     0.0000 ca         1 95N      -0.021900
      3 C1           2.5840     0.0000     1.1980 ca         1 95N      -0.100500
      4 C6           3.9660    -0.0000     1.1970 ca         1 95N      -0.124500
      5 C5           4.6560    -0.0010    -0.0000 ca         1 95N      -0.073300
      6 C4           3.9660    -0.0000    -1.1980 ca         1 95N      -0.124500
      7 C3           2.5830    -0.0070    -1.1980 ca         1 95N      -0.100500
      8 C8           6.1640    -0.0000     0.0000 c3         1 95N      -0.038100
      9 C9           6.6730    -1.4420     0.0010 c3         1 95N       0.160800
     10 N10          8.1430    -1.4420    -0.0000 n3         1 95N      -0.728600
     11 C23          8.6690    -0.8850     1.2530 c3         1 95N       0.145100
     12 C11          8.6700    -2.7930    -0.2380 c3         1 95N       0.169500
     13 C12         10.2000    -2.7540    -0.2310 c3         1 95N      -0.081400
     14 C13         10.7430    -4.1510    -0.5390 c3         1 95N       0.174300
     15 N14         10.2520    -4.5890    -1.8520 nh         1 95N      -0.690300
     16 C15          8.7870    -4.6790    -1.8680 c3         1 95N       0.174300
     17 C16          8.1860    -3.2980    -1.6000 c3         1 95N      -0.081400
     18 C17         10.8280    -5.7920    -2.2200 cc         1 95N       0.641400
     19 N18         10.5930    -6.4660    -3.3650 na         1 95N      -0.184400
     20 N19         11.3860    -7.6240    -3.3150 nd         1 95N      -0.561800
     21 C20         12.0390    -7.5910    -2.1790 cc         1 95N       0.834900
     22 N21         11.7050    -6.4770    -1.5170 nc         1 95N      -0.817000
     23 N22         12.9440    -8.5560    -1.7340 nv         1 95N      -1.041500
     24 H1           2.0420     0.0000     2.1360 ha         1 95N       0.144000
     25 H2           4.5080    -0.0000     2.1350 ha         1 95N       0.137500
     26 H3           4.5070    -0.0030    -2.1360 ha         1 95N       0.137500
     27 H4           2.0410    -0.0060    -2.1360 ha         1 95N       0.144000
     28 H5           6.5240     0.5110     0.8850 hc         1 95N       0.059200
     29 H6           6.5250     0.5100    -0.8850 hc         1 95N       0.059200
     30 H7           6.3130    -1.9530     0.8860 h1         1 95N       0.039200
     31 H8           6.3120    -1.9540    -0.8830 h1         1 95N       0.039200
     32 H10          8.1850     0.0620     1.4590 h1         1 95N       0.035367
     33 H11          9.7380    -0.7320     1.1590 h1         1 95N       0.035367
     34 H12          8.4730    -1.5750     2.0650 h1         1 95N       0.035367
     35 H13          8.3230    -3.4640     0.5390 h1         1 95N       0.025700
     36 H14         10.5480    -2.4390     0.7460 hc         1 95N       0.061950
     37 H15         10.5460    -2.0580    -0.9860 hc         1 95N       0.061950
     38 H16         10.4050    -4.8450     0.2210 h1         1 95N       0.051950
     39 H17         11.8260    -4.1210    -0.5520 h1         1 95N       0.051950
     40 H18          8.4590    -5.0310    -2.8390 h1         1 95N       0.051950
     41 H19          8.4600    -5.3690    -1.1000 h1         1 95N       0.051950
     42 H20          8.5050    -2.6100    -2.3730 hc         1 95N       0.061950
     43 H21          7.1050    -3.3700    -1.5940 hc         1 95N       0.061950
     44 H22          9.9750    -6.1940    -4.1040 hn         1 95N       0.331700
     45 H23         12.6080    -9.4160    -1.3490 hn         1 95N       0.443800
     46 H24         13.9280    -8.3840    -1.7930 hn         1 95N       0.443800
@<TRIPOS>BOND
     1    23    21 1
     2    21    22 1
     3    21    20 2
     4    22    18 2
     5    20    19 1
     6    18    19 1
     7    18    15 1
     8    16    15 1
     9    16    17 1
    10    15    14 1
    11     3     4 ar
    12     3     2 ar
    13    17    12 1
    14     4     5 ar
    15     1     2 1
    16     2     7 ar
    17    14    13 1
    18     5     8 1
    19     5     6 ar
    20    12    13 1
    21    12    10 1
    22     8     9 1
    23     7     6 ar
    24     9    10 1
    25    10    11 1
    26     3    24 1
    27     4    25 1
    28     6    26 1
    29     7    27 1
    30     8    28 1
    31     8    29 1
    32     9    30 1
    33     9    31 1
    34    11    32 1
    35    11    33 1
    36    11    34 1
    37    12    35 1
    38    13    36 1
    39    13    37 1
    40    14    38 1
    41    14    39 1
    42    16    40 1
    43    16    41 1
    44    17    42 1
    45    17    43 1
    46    19    44 1
    47    23    45 1
    48    23    46 1
@<TRIPOS>SUBSTRUCTURE
     1 95N         1 TEMP              0 ****  ****    0 ROOT
