@<TRIPOS>MOLECULE
95P
   24    25     1     0     0
SMALL
bcc


@<TRIPOS>ATOM
      1 C5           0.0000     0.0000     0.0000 cc         1 95P       0.417300
      2 C7           2.1350    -3.4740    -5.2080 cc         1 95P       0.078300
      3 C9          -0.2250     0.0050    -2.3600 c          1 95P       0.600100
      4 C10          0.9080    -3.7220    -5.6720 cd         1 95P      -0.051900
      5 C2           0.5630    -1.5200    -5.1390 cc         1 95P      -0.047600
      6 C4           0.0410    -2.6420    -5.6340 cd         1 95P       0.023000
      7 C14          1.8950     0.0000     1.1780 cd         1 95P       0.408200
      8 C13          1.0620    -0.0080     2.2220 cc         1 95P      -0.035300
      9 N11         -0.7960     0.0050    -1.1390 ns         1 95P      -0.077400
     10 N12          1.2960     0.0000     0.0000 nd         1 95P      -0.549000
     11 N6          -0.9970     0.0100    -3.4650 ns         1 95P      -0.313300
     12 O15          0.6960     1.0260    -4.9450 o          1 95P      -0.551800
     13 O16         -1.3610    -0.0200    -5.9060 o          1 95P      -0.551800
     14 O17          0.9860    -0.0000    -2.4640 o          1 95P      -0.586100
     15 S1          -0.2960     0.0090    -4.9650 sy         1 95P       1.077900
     16 S3           2.2370    -1.7990    -4.6780 ss         1 95P      -0.094800
     17 S8          -0.5880    -0.0010     1.6060 ss         1 95P      -0.294300
     18 Br2          1.5680    -0.0260     4.0440 br         1 95P      -0.015100
     19 Cl18         3.4300    -4.6280    -5.1320 cl         1 95P       0.092600
     20 H1          -0.9840    -2.7050    -5.9790 ha         1 95P       0.139000
     21 H2           2.9720    -0.0010     1.2880 h4         1 95P       0.013100
     22 H3          -1.7930     0.0250    -1.0530 hn         1 95P       0.169500
     23 H4          -1.9940     0.0400    -3.3790 hn         1 95P       0.223500
     24 Br1          0.3940    -5.4170    -6.3330 br         1 95P      -0.075100
@<TRIPOS>BOND
     1     1     9 1   
     2     1    10 2   
     3     1    17 1   
     4     2     4 2   
     5     2    16 1   
     6     2    19 1   
     7     3     9 1   
     8     3    11 1   
     9     3    14 2   
    10     4     6 1   
    11     4    24 1   
    12     5     6 2   
    13     5    15 1   
    14     5    16 1   
    15     6    20 1   
    16     7     8 2   
    17     7    10 1   
    18     7    21 1   
    19     8    17 1   
    20     8    18 1   
    21     9    22 1   
    22    11    15 1   
    23    11    23 1   
    24    12    15 2   
    25    13    15 2   
@<TRIPOS>SUBSTRUCTURE
     1 95P         1 TEMP              0 ****  ****    0 ROOT
