@<TRIPOS>MOLECULE
molecule
   56    59     1     0     0
SMALL
bcc


@<TRIPOS>ATOM
      1 Cl7          0.0000     0.0000     0.0000 cl         1 95Q      -0.110400
      2 C2           1.7350     0.0000     0.0000 ca         1 95Q       0.025400
      3 C1           2.4280     0.0000     1.1980 ca         1 95Q      -0.119000
      4 C6           3.8100    -0.0000     1.1970 ca         1 95Q      -0.117500
      5 C5           4.5010     0.0010    -0.0000 ca         1 95Q      -0.083300
      6 C4           3.8090     0.0020    -1.1980 ca         1 95Q      -0.117500
      7 C3           2.4270    -0.0050    -1.1980 ca         1 95Q      -0.119000
      8 C8           6.0080     0.0020    -0.0000 c3         1 95Q      -0.037100
      9 C9           6.5190    -1.4400    -0.0020 c3         1 95Q       0.151800
     10 N10          7.9870    -1.4390    -0.0020 n3         1 95Q      -0.714600
     11 C23          8.5140    -0.8830     1.2510 c3         1 95Q       0.199100
     12 C24          8.0410    -1.7220     2.4100 ca         1 95Q      -0.129300
     13 C25          6.8790    -1.3840     3.0790 ca         1 95Q      -0.123500
     14 C26          6.4440    -2.1530     4.1420 ca         1 95Q      -0.127000
     15 C27          7.1730    -3.2610     4.5370 ca         1 95Q      -0.124000
     16 C28          8.3330    -3.5990     3.8680 ca         1 95Q      -0.127000
     17 C29          8.7650    -2.8320     2.8020 ca         1 95Q      -0.123500
     18 C11          8.5150    -2.7890    -0.2430 c3         1 95Q       0.161500
     19 C12          7.9590    -3.3290    -1.5630 c3         1 95Q      -0.081900
     20 C13          8.5580    -4.7090    -1.8380 c3         1 95Q       0.174800
     21 N14         10.0220    -4.6040    -1.9080 nh         1 95Q      -0.689300
     22 C15         10.5820    -4.1330    -0.6350 c3         1 95Q       0.174800
     23 C16         10.0430    -2.7350    -0.3250 c3         1 95Q      -0.081900
     24 C17         10.5880    -5.8090    -2.2840 cc         1 95Q       0.643400
     25 N18         11.9060    -6.0510    -2.4410 na         1 95Q      -0.183400
     26 N19         12.0200    -7.3960    -2.8250 nd         1 95Q      -0.569800
     27 C20         10.8040    -7.8840    -2.8780 cc         1 95Q       0.835900
     28 N21          9.9360    -6.9220    -2.5440 nc         1 95Q      -0.819000
     29 N22         10.4700    -9.1950    -3.2190 nv         1 95Q      -1.035500
     30 H1           1.8870    -0.0010     2.1360 ha         1 95Q       0.144000
     31 H2           4.3530    -0.0010     2.1350 ha         1 95Q       0.137000
     32 H3           4.3500     0.0010    -2.1360 ha         1 95Q       0.137000
     33 H4           1.8850    -0.0040    -2.1360 ha         1 95Q       0.144000
     34 H5           6.3690     0.5140    -0.8840 hc         1 95Q       0.057200
     35 H6           6.3680     0.5120     0.8850 hc         1 95Q       0.057200
     36 H7           6.1580    -1.9520     0.8810 h1         1 95Q       0.048200
     37 H8           6.1580    -1.9500    -0.8880 h1         1 95Q       0.048200
     38 H10          8.1600     0.1330     1.3730 h1         1 95Q       0.063200
     39 H11          9.5970    -0.8870     1.2210 h1         1 95Q       0.063200
     40 H12          6.3090    -0.5160     2.7690 ha         1 95Q       0.130000
     41 H13          5.5340    -1.8880     4.6670 ha         1 95Q       0.131000
     42 H14          6.8340    -3.8630     5.3710 ha         1 95Q       0.132000
     43 H15          8.9020    -4.4680     4.1760 ha         1 95Q       0.131000
     44 H16          9.6750    -3.0980     2.2770 ha         1 95Q       0.130000
     45 H17          8.2210    -3.4470     0.5660 h1         1 95Q       0.038700
     46 H18          6.8810    -3.4110    -1.4930 hc         1 95Q       0.061700
     47 H19          8.2230    -2.6540    -2.3680 hc         1 95Q       0.061700
     48 H20          8.1790    -5.0850    -2.7800 h1         1 95Q       0.051700
     49 H21          8.2850    -5.3860    -1.0370 h1         1 95Q       0.051700
     50 H22         10.2940    -4.8140     0.1580 h1         1 95Q       0.051700
     51 H23         11.6620    -4.0940    -0.7100 h1         1 95Q       0.051700
     52 H24         10.3380    -2.0520    -1.1130 hc         1 95Q       0.061700
     53 H25         10.4430    -2.3970     0.6230 hc         1 95Q       0.061700
     54 H26         12.6550    -5.4000    -2.3100 hn         1 95Q       0.330700
     55 H27         10.0820    -9.8080    -2.5290 hn         1 95Q       0.443800
     56 H28         10.6320    -9.5270    -4.1490 hn         1 95Q       0.443800
@<TRIPOS>BOND
     1    29    27 1
     2    27    28 1
     3    27    26 2
     4    28    24 2
     5    26    25 1
     6    24    25 1
     7    24    21 1
     8    20    21 1
     9    20    19 1
    10    21    22 1
    11     7     6 ar
    12     7     2 ar
    13    19    18 1
    14     6     5 ar
    15     1     2 1
    16     2     3 ar
    17    22    23 1
    18     5     8 1
    19     5     4 ar
    20    18    23 1
    21    18    10 1
    22     8     9 1
    23     3     4 ar
    24     9    10 1
    25    10    11 1
    26    11    12 1
    27    12    17 ar
    28    12    13 ar
    29    17    16 ar
    30    13    14 ar
    31    16    15 ar
    32    14    15 ar
    33     3    30 1
    34     4    31 1
    35     6    32 1
    36     7    33 1
    37     8    34 1
    38     8    35 1
    39     9    36 1
    40     9    37 1
    41    11    38 1
    42    11    39 1
    43    13    40 1
    44    14    41 1
    45    15    42 1
    46    16    43 1
    47    17    44 1
    48    18    45 1
    49    19    46 1
    50    19    47 1
    51    20    48 1
    52    20    49 1
    53    22    50 1
    54    22    51 1
    55    23    52 1
    56    23    53 1
    57    25    54 1
    58    29    55 1
    59    29    56 1
@<TRIPOS>SUBSTRUCTURE
     1 95Q         1 TEMP              0 ****  ****    0 ROOT
