@<TRIPOS>MOLECULE
95Q
   56    59     1     0     0
SMALL
bcc


@<TRIPOS>ATOM
      1 Cl7          0.0000     0.0000     0.0000 cl         1 95Q      -0.028400
      2 C2           1.7350     0.0000     0.0000 ca         1 95Q      -0.037600
      3 C1           2.4280     0.0000     1.1980 ca         1 95Q      -0.095000
      4 C6           3.8100    -0.0000     1.1970 ca         1 95Q      -0.091000
      5 C5           4.5010     0.0010    -0.0000 ca         1 95Q      -0.087300
      6 C4           3.8090     0.0020    -1.1980 ca         1 95Q      -0.091000
      7 C3           2.4270    -0.0050    -1.1980 ca         1 95Q      -0.095000
      8 C8           6.0080     0.0020    -0.0000 c3         1 95Q       0.020900
      9 C9           6.5190    -1.4400    -0.0020 c3         1 95Q       0.120800
     10 N10          7.9870    -1.4390    -0.0020 n3         1 95Q      -0.523600
     11 C23          8.5140    -0.8830     1.2510 c3         1 95Q       0.190100
     12 C24          8.0410    -1.7220     2.4100 ca         1 95Q      -0.131300
     13 C25          6.8790    -1.3840     3.0790 ca         1 95Q      -0.103500
     14 C26          6.4440    -2.1530     4.1420 ca         1 95Q      -0.097000
     15 C27          7.1730    -3.2610     4.5370 ca         1 95Q      -0.096000
     16 C28          8.3330    -3.5990     3.8680 ca         1 95Q      -0.097000
     17 C29          8.7650    -2.8320     2.8020 ca         1 95Q      -0.103500
     18 C11          8.5150    -2.7890    -0.2430 c3         1 95Q       0.111500
     19 C12          7.9590    -3.3290    -1.5630 c3         1 95Q      -0.039900
     20 C13          8.5580    -4.7090    -1.8380 c3         1 95Q       0.149300
     21 N14         10.0220    -4.6040    -1.9080 nh         1 95Q      -0.447300
     22 C15         10.5820    -4.1330    -0.6350 c3         1 95Q       0.149300
     23 C16         10.0430    -2.7350    -0.3250 c3         1 95Q      -0.039900
     24 C17         10.5880    -5.8090    -2.2840 cc         1 95Q       0.377400
     25 N18         11.9060    -6.0510    -2.4410 na         1 95Q       0.298600
     26 N19         12.0200    -7.3960    -2.8250 nc         1 95Q      -0.722800
     27 C20         10.8040    -7.8840    -2.8780 cd         1 95Q       0.700900
     28 N21          9.9360    -6.9220    -2.5440 nd         1 95Q      -0.749000
     29 N22         10.4700    -9.1950    -3.2190 nv         1 95Q      -0.581500
     30 H1           1.8870    -0.0010     2.1360 ha         1 95Q       0.114500
     31 H2           4.3530    -0.0010     2.1350 ha         1 95Q       0.109500
     32 H3           4.3500     0.0010    -2.1360 ha         1 95Q       0.109500
     33 H4           1.8850    -0.0040    -2.1360 ha         1 95Q       0.114500
     34 H5           6.3690     0.5140    -0.8840 hc         1 95Q       0.028200
     35 H6           6.3680     0.5120     0.8850 hc         1 95Q       0.028200
     36 H7           6.1580    -1.9520     0.8810 h1         1 95Q       0.029200
     37 H8           6.1580    -1.9500    -0.8880 h1         1 95Q       0.029200
     38 H10          8.1600     0.1330     1.3730 h1         1 95Q       0.035700
     39 H11          9.5970    -0.8870     1.2210 h1         1 95Q       0.035700
     40 H12          6.3090    -0.5160     2.7690 ha         1 95Q       0.112500
     41 H13          5.5340    -1.8880     4.6670 ha         1 95Q       0.104000
     42 H14          6.8340    -3.8630     5.3710 ha         1 95Q       0.104000
     43 H15          8.9020    -4.4680     4.1760 ha         1 95Q       0.104000
     44 H16          9.6750    -3.0980     2.2770 ha         1 95Q       0.112500
     45 H17          8.2210    -3.4470     0.5660 h1         1 95Q       0.028700
     46 H18          6.8810    -3.4110    -1.4930 hc         1 95Q       0.034700
     47 H19          8.2230    -2.6540    -2.3680 hc         1 95Q       0.034700
     48 H20          8.1790    -5.0850    -2.7800 h1         1 95Q       0.022200
     49 H21          8.2850    -5.3860    -1.0370 h1         1 95Q       0.022200
     50 H22         10.2940    -4.8140     0.1580 h1         1 95Q       0.022200
     51 H23         11.6620    -4.0940    -0.7100 h1         1 95Q       0.022200
     52 H24         10.3380    -2.0520    -1.1130 hc         1 95Q       0.034700
     53 H25         10.4430    -2.3970     0.6230 hc         1 95Q       0.034700
     54 H26         12.6550    -5.4000    -2.3100 hn         1 95Q       0.159700
     55 H27         10.0820    -9.8080    -2.5290 hn         1 95Q       0.274300
     56 H28         10.6320    -9.5270    -4.1490 hn         1 95Q       0.274300
@<TRIPOS>BOND
     1     1     2 1   
     2     2     3 ar  
     3     2     7 ar  
     4     3     4 ar  
     5     3    30 1   
     6     4     5 ar  
     7     4    31 1   
     8     5     6 ar  
     9     5     8 1   
    10     6     7 ar  
    11     6    32 1   
    12     7    33 1   
    13     8     9 1   
    14     8    34 1   
    15     8    35 1   
    16     9    10 1   
    17     9    36 1   
    18     9    37 1   
    19    10    11 1   
    20    10    18 1   
    21    11    12 1   
    22    11    38 1   
    23    11    39 1   
    24    12    13 ar  
    25    12    17 ar  
    26    13    14 ar  
    27    13    40 1   
    28    14    15 ar  
    29    14    41 1   
    30    15    16 ar  
    31    15    42 1   
    32    16    17 ar  
    33    16    43 1   
    34    17    44 1   
    35    18    19 1   
    36    18    23 1   
    37    18    45 1   
    38    19    20 1   
    39    19    46 1   
    40    19    47 1   
    41    20    21 1   
    42    20    48 1   
    43    20    49 1   
    44    21    22 1   
    45    21    24 1   
    46    22    23 1   
    47    22    50 1   
    48    22    51 1   
    49    23    52 1   
    50    23    53 1   
    51    24    25 1   
    52    24    28 2   
    53    25    26 1   
    54    25    54 1   
    55    26    27 2   
    56    27    28 1   
    57    27    29 1   
    58    29    55 1   
    59    29    56 1   
@<TRIPOS>SUBSTRUCTURE
     1 95Q         1 TEMP              0 ****  ****    0 ROOT
