@<TRIPOS>MOLECULE
molecule
   37    38     1     0     0
SMALL
bcc


@<TRIPOS>ATOM
      1 C7           0.0000     0.0000     0.0000 c          1 95S       0.786100
      2 C8           2.5200     2.6620    -2.0880 cc         1 95S      -0.021000
      3 C10          0.9740     3.4880    -3.5640 cd         1 95S      -0.014400
      4 C3          -2.0640     0.0060     1.1670 cd         1 95S       0.585300
      5 C2           1.8200     1.5360    -2.2350 cd         1 95S      -0.287600
      6 C14         -4.1150     0.0260     0.2890 cc         1 95S       0.436200
      7 C13         -4.4950     0.0220     1.5690 cd         1 95S      -0.116300
      8 C12          2.0510     3.7390    -2.8190 cc         1 95S      -0.145300
      9 C20          2.7080     5.0960    -2.7770 c3         1 95S      -0.028800
     10 C22          0.8890     4.4480    -5.8490 c3         1 95S       0.140400
     11 C23          0.7250     5.4410    -8.0240 c3         1 95S       0.131700
     12 N11         -2.8070     0.0170     0.1050 nc         1 95S      -0.679000
     13 N4           1.3470     0.0000     0.0000 ns         1 95S      -0.661300
     14 N9          -0.6740     0.0000     1.1670 ns         1 95S      -0.532400
     15 O17         -0.6090     0.0040    -1.0530 o          1 95S      -0.547100
     16 O21          0.2260     5.3980    -6.6860 os         1 95S      -0.433600
     17 S1           2.1750     0.0070    -1.4340 sy         1 95S       1.453900
     18 S5          -3.0440     0.0070     2.5680 ss         1 95S      -0.181300
     19 S6           0.4870     1.8100    -3.3500 ss         1 95S       0.044200
     20 Br19        -6.2770     0.0340     2.1980 br         1 95S      -0.021100
     21 H1           3.3870     2.7300    -1.4430 ha         1 95S       0.157000
     22 H2          -4.8220     0.0350    -0.5310 h4         1 95S       0.061100
     23 H3          -0.7790     4.2430    -4.5080 hc         1 95S       0.068700
     24 H4           0.3910     5.4810    -4.0310 hc         1 95S       0.068700
     25 H5           3.4750     5.1020    -2.0120 hc         1 95S       0.044367
     26 H6           1.9650     5.8500    -2.5490 hc         1 95S       0.044367
     27 H7           3.1570     5.3100    -3.7390 hc         1 95S       0.044367
     28 H8           1.9420     4.6940    -5.7890 h1         1 95S       0.030200
     29 H9           0.7720     3.4560    -6.2660 h1         1 95S       0.030200
     30 H10          1.7710     5.7230    -8.0110 h1         1 95S       0.031367
     31 H11          0.6200     4.4640    -8.4810 h1         1 95S       0.031367
     32 H12          0.1630     6.1690    -8.5960 h1         1 95S       0.031367
     33 H13          1.8470    -0.0370     0.8660 hn         1 95S       0.338500
     34 H14         -0.1740    -0.0080     2.0340 hn         1 95S       0.335500
     35 C18          0.2750     4.4880    -4.4480 c3         1 95S      -0.010100
     36 O15          1.5940    -1.0110    -2.2370 o          1 95S      -0.607800
     37 O16          3.5560     0.0400    -1.1010 o          1 95S      -0.607800
@<TRIPOS>BOND
     1    36    17 2
     2    13    17 1
     3    13     1 1
     4    14     1 1
     5    14     4 1
     6    17    37 2
     7    17     5 1
     8    12     4 2
     9    12     6 1
    10     1    15 2
    11     4    18 1
    12    19     5 1
    13    19     3 1
    14     6     7 2
    15    11    16 1
    16     5     2 2
    17    10    16 1
    18    10    35 1
    19     7    18 1
    20     7    20 1
    21     3    35 1
    22     3     8 2
    23     2     8 1
    24     8     9 1
    25     2    21 1
    26     6    22 1
    27    35    23 1
    28    35    24 1
    29     9    25 1
    30     9    26 1
    31     9    27 1
    32    10    28 1
    33    10    29 1
    34    11    30 1
    35    11    31 1
    36    11    32 1
    37    13    33 1
    38    14    34 1
@<TRIPOS>SUBSTRUCTURE
     1 95S         1 TEMP              0 ****  ****    0 ROOT
