@<TRIPOS>MOLECULE
95U
   36    38     1     0     0
SMALL
bcc


@<TRIPOS>ATOM
      1 O21          0.0000     0.0000     0.0000 o          1 95U      -0.633100
      2 C18          1.2160     0.0000     0.0000 c          1 95U       0.567300
      3 C19          1.9500     0.0000     1.2740 ce         1 95U      -0.249200
      4 C20          1.2850     0.0000     2.4260 c2         1 95U      -0.051000
      5 N17          1.8890    -0.0060    -1.1660 ns         1 95U      -0.027100
      6 C15          1.1950    -0.1080    -2.3760 ca         1 95U      -0.095400
      7 C16         -0.0480     0.4910    -2.5140 ca         1 95U      -0.079000
      8 C11         -0.7370     0.3860    -3.7210 ca         1 95U      -0.074900
      9 C12         -0.1730    -0.3220    -4.7810 ca         1 95U      -0.108000
     10 C13          1.0640    -0.9170    -4.6340 ca         1 95U      -0.088000
     11 C14          1.7510    -0.8080    -3.4400 ca         1 95U      -0.130000
     12 C7          -2.0650     1.0240    -3.8760 cc         1 95U       0.450500
     13 N8          -2.9800     1.1460    -2.9440 nd         1 95U      -0.616100
     14 N9          -4.1020     1.8020    -3.4600 na         1 95U       0.413900
     15 C5          -3.8820     2.1080    -4.7790 ca         1 95U      -0.180200
     16 C6          -2.5950     1.6380    -5.0980 ca         1 95U      -0.251900
     17 C4          -4.6400     2.7430    -5.7590 ca         1 95U      -0.125000
     18 C3          -4.1320     2.9000    -7.0170 ca         1 95U      -0.047300
     19 C10         -4.9570     3.5890    -8.0730 c3         1 95U       0.061200
     20 C2          -2.8620     2.4320    -7.3350 ca         1 95U      -0.146000
     21 C1          -2.0930     1.8160    -6.3900 ca         1 95U      -0.020000
     22 H1           3.0340    -0.0000     1.2740 ha         1 95U       0.103000
     23 H2           0.2020     0.0000     2.4260 ha         1 95U       0.092000
     24 H3           1.8270     0.0000     3.3640 ha         1 95U       0.092000
     25 H4           2.8870     0.0770    -1.1680 hn         1 95U       0.165500
     26 H5          -0.4810     1.0400    -1.6860 ha         1 95U       0.159000
     27 H6          -0.7070    -0.4080    -5.7200 ha         1 95U       0.113000
     28 H7           1.5010    -1.4650    -5.4600 ha         1 95U       0.102000
     29 H8           2.7220    -1.2760    -3.3300 ha         1 95U       0.103000
     30 H10         -5.6530     3.0600    -5.5400 ha         1 95U       0.107000
     31 H11         -5.7580     2.9330    -8.3920 hc         1 95U       0.008033
     32 H12         -5.3780     4.5000    -7.6660 hc         1 95U       0.008033
     33 H13         -4.3290     3.8300    -8.9220 hc         1 95U       0.008033
     34 H14         -2.4760     2.5660    -8.3380 ha         1 95U       0.108000
     35 H15         -1.1040     1.4540    -6.6450 ha         1 95U       0.106000
     36 H16         -4.9340     2.0160    -2.9470 hn         1 95U       0.152700
@<TRIPOS>BOND
     1     1     2 2   
     2     2     3 1   
     3     2     5 1   
     4     3     4 2   
     5     3    22 1   
     6     4    23 1   
     7     4    24 1   
     8     5     6 1   
     9     5    25 1   
    10     6     7 ar  
    11     6    11 ar  
    12     7     8 ar  
    13     7    26 1   
    14     8     9 ar  
    15     8    12 1   
    16     9    10 ar  
    17     9    27 1   
    18    10    11 ar  
    19    10    28 1   
    20    11    29 1   
    21    12    13 2   
    22    12    16 1   
    23    13    14 1   
    24    14    15 1   
    25    14    36 1   
    26    15    16 ar  
    27    15    17 ar  
    28    16    21 ar  
    29    17    18 ar  
    30    17    30 1   
    31    18    19 1   
    32    18    20 ar  
    33    19    31 1   
    34    19    32 1   
    35    19    33 1   
    36    20    21 ar  
    37    20    34 1   
    38    21    35 1   
@<TRIPOS>SUBSTRUCTURE
     1 95U         1 TEMP              0 ****  ****    0 ROOT
