@<TRIPOS>MOLECULE
molecule
   36    38     1     0     0
SMALL
bcc


@<TRIPOS>ATOM
      1 O21          0.0000     0.0000     0.0000 o          1 95U      -0.593100
      2 C18          1.2160     0.0000     0.0000 c          1 95U       0.661300
      3 C19          1.9500     0.0000     1.2740 ce         1 95U      -0.255200
      4 C20          1.2850     0.0000     2.4260 c2         1 95U      -0.124000
      5 N17          1.8890    -0.0060    -1.1660 ns         1 95U      -0.474100
      6 C15          1.1950    -0.1080    -2.3760 ca         1 95U       0.051600
      7 C16         -0.0480     0.4910    -2.5140 ca         1 95U      -0.100000
      8 C11         -0.7370     0.3860    -3.7210 ca         1 95U      -0.075900
      9 C12         -0.1730    -0.3220    -4.7810 ca         1 95U      -0.128000
     10 C13          1.0640    -0.9170    -4.6340 ca         1 95U      -0.117000
     11 C14          1.7510    -0.8080    -3.4400 ca         1 95U      -0.156000
     12 C7          -2.0650     1.0240    -3.8760 cd         1 95U       0.421500
     13 N8          -2.9800     1.1460    -2.9440 nc         1 95U      -0.481100
     14 N9          -4.1020     1.8020    -3.4600 na         1 95U      -0.052100
     15 C5          -3.8820     2.1080    -4.7790 ca         1 95U      -0.015200
     16 C6          -2.5950     1.6380    -5.0980 ca         1 95U      -0.242900
     17 C4          -4.6400     2.7430    -5.7590 ca         1 95U      -0.161000
     18 C3          -4.1320     2.9000    -7.0170 ca         1 95U      -0.038300
     19 C10         -4.9570     3.5890    -8.0730 c3         1 95U      -0.049800
     20 C2          -2.8620     2.4320    -7.3350 ca         1 95U      -0.170000
     21 C1          -2.0930     1.8160    -6.3900 ca         1 95U      -0.054000
     22 H1           3.0340    -0.0000     1.2740 ha         1 95U       0.126000
     23 H2           1.8270     0.0000     3.3640 ha         1 95U       0.131000
     24 H3           0.2020     0.0000     2.4260 ha         1 95U       0.131000
     25 H4           2.8870     0.0760    -1.1680 hn         1 95U       0.324500
     26 H5          -0.4810     1.0400    -1.6860 ha         1 95U       0.180000
     27 H6          -0.7070    -0.4080    -5.7200 ha         1 95U       0.137000
     28 H7           1.5010    -1.4650    -5.4600 ha         1 95U       0.133000
     29 H8           2.7220    -1.2760    -3.3300 ha         1 95U       0.129000
     30 H10         -5.6530     3.0590    -5.5400 ha         1 95U       0.130000
     31 H11         -4.3290     3.8290    -8.9230 hc         1 95U       0.044700
     32 H12         -5.3780     4.5010    -7.6660 hc         1 95U       0.044700
     33 H13         -5.7590     2.9330    -8.3910 hc         1 95U       0.044700
     34 H14         -2.4760     2.5660    -8.3380 ha         1 95U       0.132000
     35 H15         -1.1040     1.4540    -6.6450 ha         1 95U       0.134000
     36 H16         -4.9340     2.0160    -2.9470 hn         1 95U       0.332700
@<TRIPOS>BOND
     1    10    11 ar
     2    10     9 ar
     3    11     6 ar
     4     9     8 ar
     5    13    12 2
     6    13    14 1
     7     6     5 1
     8     6     7 ar
     9     8     7 ar
    10     8    12 1
    11     5     2 1
    12    12    16 1
    13     3     2 1
    14     3     4 2
    15    14    15 1
    16     2     1 2
    17    15    16 ar
    18    15    17 ar
    19    16    21 ar
    20    17    18 ar
    21    21    20 ar
    22    18    20 ar
    23    18    19 1
    24     3    22 1
    25     4    23 1
    26     4    24 1
    27     5    25 1
    28     7    26 1
    29     9    27 1
    30    10    28 1
    31    11    29 1
    32    17    30 1
    33    19    31 1
    34    19    32 1
    35    19    33 1
    36    20    34 1
    37    21    35 1
    38    14    36 1
@<TRIPOS>SUBSTRUCTURE
     1 95U         1 TEMP              0 ****  ****    0 ROOT
