@<TRIPOS>MOLECULE
95V
   36    38     1     0     0
SMALL
bcc


@<TRIPOS>ATOM
      1 C5           0.0000     0.0000     0.0000 cc         1 95V       0.415300
      2 C7          -2.1380    -0.0050    -1.0230 c          1 95V       0.612100
      3 C10         -5.0190     1.5200    -1.2390 ca         1 95V      -0.162500
      4 C3           1.8950     0.0000     1.1770 cd         1 95V       0.398200
      5 C2           1.0630     0.0000     2.2210 cc         1 95V      -0.057300
      6 C15         -5.2920     2.6180    -2.0330 ca         1 95V       0.012000
      7 C16         -5.6570     3.8170    -1.4540 ca         1 95V      -0.122000
      8 C17         -5.7500     3.9180    -0.0670 ca         1 95V      -0.066500
      9 C18         -5.4740     2.8070     0.7270 ca         1 95V      -0.122000
     10 C19         -5.1100     1.6140     0.1380 ca         1 95V       0.012000
     11 C20         -6.1400     5.2040     0.5610 cc         1 95V       0.377800
     12 C22         -6.7420     7.3510     0.5220 cd         1 95V       0.437700
     13 C24         -6.2430     5.3670     1.8950 cd         1 95V      -0.107400
     14 C25         -7.0860     8.6800    -0.0990 c3         1 95V      -0.000400
     15 N21         -6.4140     6.2950    -0.1400 nc         1 95V      -0.558000
     16 N4           1.2970     0.0000     0.0000 nd         1 95V      -0.628000
     17 N6          -0.7960    -0.0060    -1.1400 ns         1 95V      -0.062400
     18 N8          -2.9110    -0.0100    -2.1280 ns         1 95V      -0.306300
     19 O11         -2.6530    -0.0010     0.0780 o          1 95V      -0.639100
     20 O13         -4.8830    -1.0270    -1.0470 o          1 95V      -0.563800
     21 O14         -5.0780     0.0190    -3.3090 o          1 95V      -0.563800
     22 S1          -0.5880    -0.0000     1.6060 ss         1 95V      -0.178300
     23 S23         -6.7280     7.0330     2.2010 ss         1 95V      -0.295300
     24 S9          -4.5600    -0.0100    -1.9850 sy         1 95V       1.050900
     25 Br12         1.5680     0.0010     4.0440 br         1 95V      -0.026100
     26 H1           2.9730     0.0000     1.2870 h4         1 95V       0.008100
     27 H2          -5.2190     2.5390    -3.1110 ha         1 95V       0.132500
     28 H3          -5.8700     4.6770    -2.0770 ha         1 95V       0.121500
     29 H4          -5.5450     2.8810     1.8060 ha         1 95V       0.121500
     30 H5          -4.8950     0.7500     0.7550 ha         1 95V       0.132500
     31 H6          -6.0630     4.6080     2.6460 h4         1 95V       0.166000
     32 H7          -7.8740     8.5440    -0.8310 hc         1 95V       0.019033
     33 H8          -7.4240     9.3620     0.6720 hc         1 95V       0.019033
     34 H9          -6.2090     9.0900    -0.5850 hc         1 95V       0.019033
     35 H10         -0.3730    -0.0430    -2.0460 hn         1 95V       0.175500
     36 H11         -2.4870    -0.0470    -3.0350 hn         1 95V       0.226500
@<TRIPOS>BOND
     1     1    16 2   
     2     1    17 1   
     3     1    22 1   
     4     2    17 1   
     5     2    18 1   
     6     2    19 2   
     7     3     6 ar  
     8     3    10 ar  
     9     3    24 1   
    10     4     5 2   
    11     4    16 1   
    12     4    26 1   
    13     5    22 1   
    14     5    25 1   
    15     6     7 ar  
    16     6    27 1   
    17     7     8 ar  
    18     7    28 1   
    19     8     9 ar  
    20     8    11 1   
    21     9    10 ar  
    22     9    29 1   
    23    10    30 1   
    24    11    13 2   
    25    11    15 1   
    26    12    14 1   
    27    12    15 2   
    28    12    23 1   
    29    13    23 1   
    30    13    31 1   
    31    14    32 1   
    32    14    33 1   
    33    14    34 1   
    34    17    35 1   
    35    18    24 1   
    36    18    36 1   
    37    20    24 2   
    38    21    24 2   
@<TRIPOS>SUBSTRUCTURE
     1 95V         1 TEMP              0 ****  ****    0 ROOT
