@<TRIPOS>MOLECULE
molecule
   36    38     1     0     0
SMALL
bcc


@<TRIPOS>ATOM
      1 C5           0.0000     0.0000     0.0000 cc         1 95V       0.548300
      2 C7          -2.1380    -0.0050    -1.0230 c          1 95V       0.801100
      3 C10         -5.0190     1.5200    -1.2390 ca         1 95V      -0.317500
      4 C3           1.8950     0.0000     1.1770 cd         1 95V       0.426200
      5 C2           1.0630     0.0000     2.2210 cc         1 95V      -0.159300
      6 C15         -5.2920     2.6180    -2.0330 ca         1 95V      -0.020500
      7 C16         -5.6570     3.8170    -1.4540 ca         1 95V      -0.136000
      8 C17         -5.7500     3.9180    -0.0670 ca         1 95V      -0.053500
      9 C18         -5.4740     2.8070     0.7270 ca         1 95V      -0.136000
     10 C19         -5.1100     1.6140     0.1380 ca         1 95V      -0.020500
     11 C20         -6.1400     5.2040     0.5610 cd         1 95V       0.414800
     12 C22         -6.7420     7.3510     0.5220 cc         1 95V       0.455700
     13 C24         -6.2430     5.3670     1.8950 cc         1 95V      -0.174400
     14 C25         -7.0860     8.6800    -0.0990 c3         1 95V      -0.114400
     15 N21         -6.4140     6.2950    -0.1400 nd         1 95V      -0.682000
     16 N4           1.2970     0.0000     0.0000 nd         1 95V      -0.739000
     17 N6          -0.7960    -0.0060    -1.1400 ns         1 95V      -0.519400
     18 N8          -2.9110    -0.0100    -2.1280 ns         1 95V      -0.653300
     19 O11         -2.6530    -0.0010     0.0780 o          1 95V      -0.612100
     20 O13         -4.8830    -1.0270    -1.0470 o          1 95V      -0.609300
     21 O14         -5.0780     0.0190    -3.3090 o          1 95V      -0.609300
     22 S1          -0.5880    -0.0000     1.6060 ss         1 95V      -0.015300
     23 S23         -6.7280     7.0330     2.2010 ss         1 95V      -0.195300
     24 S9          -4.5600    -0.0100    -1.9850 sy         1 95V       1.422900
     25 Br12         1.5680     0.0010     4.0440 br         1 95V      -0.030100
     26 H1           2.9730     0.0000     1.2870 h4         1 95V       0.053100
     27 H2          -5.2190     2.5390    -3.1110 ha         1 95V       0.159500
     28 H3          -5.8700     4.6770    -2.0770 ha         1 95V       0.149500
     29 H4          -5.5450     2.8810     1.8060 ha         1 95V       0.149500
     30 H5          -4.8950     0.7500     0.7550 ha         1 95V       0.159500
     31 H6          -6.0630     4.6080     2.6460 h4         1 95V       0.185000
     32 H7          -7.8740     8.5440    -0.8310 hc         1 95V       0.059700
     33 H8          -7.4240     9.3620     0.6720 hc         1 95V       0.059700
     34 H9          -6.2090     9.0900    -0.5850 hc         1 95V       0.059700
     35 H10         -0.3730    -0.0430    -2.0460 hn         1 95V       0.345500
     36 H11         -2.4870    -0.0470    -3.0350 hn         1 95V       0.346500
@<TRIPOS>BOND
     1    21    24 2
     2    10     9 ar
     3    10     3 ar
     4    24    20 2
     5    24     3 1
     6    24    18 1
     7     9     8 ar
     8     3     6 ar
     9    13    11 2
    10    13    23 1
    11     8    11 1
    12     8     7 ar
    13     6     7 ar
    14    11    15 1
    15    23    12 1
    16    18     2 1
    17    15    12 2
    18    12    14 1
    19     2    19 2
    20     2    17 1
    21    17     1 1
    22     1    16 2
    23     1    22 1
    24    16     4 1
    25    22     5 1
    26     4     5 2
    27     5    25 1
    28     4    26 1
    29     6    27 1
    30     7    28 1
    31     9    29 1
    32    10    30 1
    33    13    31 1
    34    14    32 1
    35    14    33 1
    36    14    34 1
    37    17    35 1
    38    18    36 1
@<TRIPOS>SUBSTRUCTURE
     1 95V         1 TEMP              0 ****  ****    0 ROOT
