@<TRIPOS>MOLECULE
molecule
   53    56     1     0     0
SMALL
bcc


@<TRIPOS>ATOM
      1 O2           0.0000     0.0000     0.0000 o          1 95W      -0.620500
      2 C21          1.2170     0.0000     0.0000 c          1 95W       0.708700
      3 C1           1.9320     0.0000     1.2220 cc         1 95W      -0.280400
      4 C            1.1950     0.0020     2.5370 c3         1 95W      -0.012900
      5 N3           1.8970    -0.0070    -1.1640 ns         1 95W      -0.560500
      6 C20          3.2430    -0.0090    -1.1640 c          1 95W       0.807500
      7 O1           3.8430    -0.0150    -2.2220 o          1 95W      -0.652500
      8 N            3.9350    -0.0030    -0.0090 n          1 95W      -0.361000
      9 C2           3.2820    -0.0010     1.1930 cd         1 95W       0.029600
     10 C3           5.3990    -0.0040    -0.0400 c3         1 95W       0.122700
     11 C19          5.8950    -1.2530    -0.7740 c3         1 95W      -0.101400
     12 C18          7.4220    -1.2190    -0.8570 c3         1 95W       0.166800
     13 N1           7.8480    -0.0080    -1.5710 n3         1 95W      -0.713600
     14 C5           7.4250     1.2050    -0.8600 c3         1 95W       0.166800
     15 C4           5.8960     1.2430    -0.7760 c3         1 95W      -0.101400
     16 C6           9.3000    -0.0100    -1.7900 c3         1 95W       0.117500
     17 C7           9.6670     1.1100    -2.7300 ca         1 95W       0.471600
     18 N2           9.5940     0.9170    -4.0330 nb         1 95W      -0.736000
     19 C11          9.9070     1.8710    -4.8940 ca         1 95W       0.659600
     20 C10         10.3260     3.1190    -4.4470 ca         1 95W      -0.266300
     21 C9          10.4120     3.3520    -3.0870 ca         1 95W      -0.065000
     22 C8          10.0710     2.3260    -2.2160 ca         1 95W      -0.293300
     23 O            9.8180     1.6300    -6.2260 os         1 95W      -0.360400
     24 C12          9.5020     0.3700    -6.6270 ca         1 95W       0.106100
     25 C17          8.1910    -0.0770    -6.5460 ca         1 95W      -0.120500
     26 C16          7.8740    -1.3580    -6.9530 ca         1 95W      -0.121500
     27 C15          8.8600    -2.1950    -7.4400 ca         1 95W      -0.129000
     28 C14         10.1670    -1.7520    -7.5220 ca         1 95W      -0.121500
     29 C13         10.4890    -0.4700    -7.1220 ca         1 95W      -0.120500
     30 H1           1.9090    -0.0010     3.3520 hc         1 95W       0.047700
     31 H2           0.5750     0.8870     2.6030 hc         1 95W       0.047700
     32 H3           0.5710    -0.8810     2.6030 hc         1 95W       0.047700
     33 H            1.3990    -0.0120    -2.0330 hn         1 95W       0.363500
     34 H4           3.8460     0.0010     2.1180 h4         1 95W       0.163000
     35 H5           5.7880    -0.0040     0.9710 h1         1 95W       0.059700
     36 H22          5.4800    -1.2710    -1.7750 hc         1 95W       0.074200
     37 H23          5.5830    -2.1370    -0.2310 hc         1 95W       0.074200
     38 H21          7.8360    -1.2090     0.1440 h1         1 95W       0.036700
     39 H20          7.7730    -2.0930    -1.3910 h1         1 95W       0.036700
     40 H9           7.8400     1.1970     0.1410 h1         1 95W       0.036700
     41 H8           7.7780     2.0780    -1.3960 h1         1 95W       0.036700
     42 H7           5.4810     1.2610    -1.7760 hc         1 95W       0.074200
     43 H6           5.5870     2.1290    -0.2330 hc         1 95W       0.074200
     44 H11          9.8080     0.1310    -0.8440 h1         1 95W       0.050200
     45 H10          9.5980    -0.9570    -2.2230 h1         1 95W       0.050200
     46 H14         10.5830     3.8980    -5.1550 ha         1 95W       0.151000
     47 H13         10.7330     4.3150    -2.7090 ha         1 95W       0.142000
     48 H12         10.1280     2.4770    -1.1450 ha         1 95W       0.137000
     49 H19          7.4180     0.5780    -6.1640 ha         1 95W       0.142000
     50 H18          6.8500    -1.7080    -6.8900 ha         1 95W       0.133000
     51 H17          8.6090    -3.2000    -7.7570 ha         1 95W       0.129000
     52 H16         10.9380    -2.4080    -7.9070 ha         1 95W       0.133000
     53 H15         11.5130    -0.1230    -7.1870 ha         1 95W       0.142000
@<TRIPOS>BOND
     1    21    20 ar
     2    21    22 ar
     3    20    19 ar
     4    22    17 ar
     5    19    23 1
     6    19    18 ar
     7    17    18 ar
     8    17    16 1
     9    23    24 1
    10    16    13 1
    11    29    24 ar
    12    29    28 ar
    13    24    25 ar
    14    13    12 1
    15    13    14 1
    16    12    11 1
    17    28    27 ar
    18    25    26 ar
    19    14    15 1
    20    11    10 1
    21    27    26 ar
    22    15    10 1
    23    10     8 1
    24     8     9 1
    25     8     6 1
    26     7     6 2
    27     9     3 2
    28     6     5 1
    29     3     4 1
    30     3     2 1
    31     5     2 1
    32     2     1 2
    33     4    30 1
    34     4    31 1
    35     4    32 1
    36     5    33 1
    37     9    34 1
    38    10    35 1
    39    11    36 1
    40    11    37 1
    41    12    38 1
    42    12    39 1
    43    14    40 1
    44    14    41 1
    45    15    42 1
    46    15    43 1
    47    16    44 1
    48    16    45 1
    49    20    46 1
    50    21    47 1
    51    22    48 1
    52    25    49 1
    53    26    50 1
    54    27    51 1
    55    28    52 1
    56    29    53 1
@<TRIPOS>SUBSTRUCTURE
     1 95W         1 TEMP              0 ****  ****    0 ROOT
