@<TRIPOS>MOLECULE
95Y
   53    55     1     0     0
SMALL
bcc


@<TRIPOS>ATOM
      1 C5           0.0000     0.0000     0.0000 ca         1 95Y       0.525200
      2 C7          -2.1540    -0.1050     3.4270 c          1 95Y       0.607100
      3 C8          -0.0600    -0.0010     2.3110 ca         1 95Y       0.403200
      4 C9          -5.0560    -3.0350     4.3140 cc         1 95Y       0.011000
      5 C10         -5.4030    -3.8010     2.1820 cd         1 95Y       0.046600
      6 C2          -4.8910    -1.8650     3.6940 cd         1 95Y      -0.051600
      7 C15          1.3270     0.0010     2.3840 ca         1 95Y      -0.289300
      8 C14          1.3900     0.0000     0.0000 ca         1 95Y      -0.262300
      9 C12         -5.3360    -4.1030     3.4790 cc         1 95Y      -0.162300
     10 C18          2.0660     0.0000     1.2100 ca         1 95Y       0.113100
     11 C23         -2.1410    -0.0130    -0.9870 c3         1 95Y       0.098800
     12 C24         -0.2820    -1.1500    -2.0400 c3         1 95Y       0.098800
     13 C25         -5.5490    -5.5020     3.9980 c3         1 95Y       0.082200
     14 C27         -1.0160    -1.0850    -3.3810 c3         1 95Y       0.211900
     15 C28         -2.8570     0.0410    -2.3390 c3         1 95Y       0.211900
     16 C29         -7.2020    -4.8490     0.8360 c3         1 95Y       0.210400
     17 C30         -8.8660    -5.9190    -0.5190 c3         1 95Y       0.258700
     18 N11         -0.8110    -0.0010     3.4850 ns         1 95Y      -0.119400
     19 N13         -0.6880    -0.0070    -1.2080 nh         1 95Y      -0.464300
     20 N3          -2.8720    -0.2100     4.5610 ns         1 95Y      -0.313300
     21 N6          -0.6760    -0.0010     1.1380 nb         1 95Y      -0.590000
     22 O19         -2.7160    -0.1060     2.3480 o          1 95Y      -0.597100
     23 O20         -2.4270    -1.0600    -3.1450 os         1 95Y      -0.412600
     24 O26         -7.4770    -5.7790    -0.2140 os         1 95Y      -0.420600
     25 S1          -4.5220    -0.3370     4.4890 sy         1 95Y       1.077900
     26 S4          -5.0990    -2.0830     1.9600 ss         1 95Y      -0.138800
     27 Br22         3.9560     0.0020     1.2600 br         1 95Y      -0.114100
     28 H1          -4.9730    -3.1420     5.3890 ha         1 95Y       0.129000
     29 H2           1.8250     0.0010     3.3450 ha         1 95Y       0.127000
     30 H3           1.9380    -0.0010    -0.9340 ha         1 95Y       0.138000
     31 H4          -5.3270    -5.7620     1.3570 hc         1 95Y       0.035200
     32 H5          -5.1970    -4.4580     0.1680 hc         1 95Y       0.035200
     33 H6          -2.4220    -0.9200    -0.4660 h1         1 95Y       0.036700
     34 H7          -2.4190     0.8520    -0.3970 h1         1 95Y       0.036700
     35 H8           0.7870    -1.1090    -2.2120 h1         1 95Y       0.036700
     36 H9          -0.5370    -2.0730    -1.5330 h1         1 95Y       0.036700
     37 H10         -6.5900    -5.7760     3.8780 hc         1 95Y       0.009700
     38 H11         -4.9280    -6.1930     3.4400 hc         1 95Y       0.009700
     39 H12         -5.2830    -5.5430     5.0470 hc         1 95Y       0.009700
     40 H13         -0.7230    -0.1850    -3.9090 h1         1 95Y       0.013700
     41 H14         -0.7650    -1.9560    -3.9730 h1         1 95Y       0.013700
     42 H15         -3.9270    -0.0220    -2.1830 h1         1 95Y       0.013700
     43 H16         -2.6130     0.9710    -2.8390 h1         1 95Y       0.013700
     44 H17         -7.6970    -5.1720     1.7430 h1         1 95Y      -0.003300
     45 H18         -7.5670    -3.8690     0.5540 h1         1 95Y      -0.003300
     46 H19         -9.2690    -4.9570    -0.8130 h1         1 95Y      -0.012633
     47 H20         -9.3930    -6.2790     0.3550 h1         1 95Y      -0.012633
     48 H21         -8.9880    -6.6250    -1.3310 h1         1 95Y      -0.012633
     49 H22         -0.3540     0.0820     4.3720 hn         1 95Y       0.167500
     50 H23         -2.4110    -0.1850     5.4490 hn         1 95Y       0.221500
     51 C21         -5.6920    -4.7820     1.0750 c3         1 95Y       0.052900
     52 O16         -4.9650     0.6890     3.6120 o          1 95Y      -0.558300
     53 O17         -4.9740    -0.4640     5.8300 o          1 95Y      -0.558300
@<TRIPOS>BOND
     1     1     8 ar  
     2     1    19 1   
     3     1    21 ar  
     4     2    18 1   
     5     2    20 1   
     6     2    22 2   
     7     3     7 ar  
     8     3    18 1   
     9     3    21 ar  
    10     4     6 2   
    11     4     9 1   
    12     4    28 1   
    13     5     9 2   
    14     5    26 1   
    15     5    51 1   
    16     6    25 1   
    17     6    26 1   
    18     7    10 ar  
    19     7    29 1   
    20     8    10 ar  
    21     8    30 1   
    22     9    13 1   
    23    10    27 1   
    24    11    15 1   
    25    11    19 1   
    26    11    33 1   
    27    11    34 1   
    28    12    14 1   
    29    12    19 1   
    30    12    35 1   
    31    12    36 1   
    32    13    37 1   
    33    13    38 1   
    34    13    39 1   
    35    14    23 1   
    36    14    40 1   
    37    14    41 1   
    38    15    23 1   
    39    15    42 1   
    40    15    43 1   
    41    16    24 1   
    42    16    44 1   
    43    16    45 1   
    44    16    51 1   
    45    17    24 1   
    46    17    46 1   
    47    17    47 1   
    48    17    48 1   
    49    18    49 1   
    50    20    25 1   
    51    20    50 1   
    52    25    52 2   
    53    25    53 2   
    54    31    51 1   
    55    32    51 1   
@<TRIPOS>SUBSTRUCTURE
     1 95Y         1 TEMP              0 ****  ****    0 ROOT
