@<TRIPOS>MOLECULE
molecule
   53    55     1     0     0
SMALL
bcc


@<TRIPOS>ATOM
      1 C5           0.0000     0.0000     0.0000 ca         1 95Y       0.656200
      2 C7          -2.1540    -0.1050     3.4270 c          1 95Y       0.788100
      3 C8          -0.0600    -0.0010     2.3110 ca         1 95Y       0.596200
      4 C9          -5.0560    -3.0350     4.3140 cc         1 95Y      -0.020000
      5 C10         -5.4030    -3.8010     2.1820 cc         1 95Y      -0.013400
      6 C2          -4.8910    -1.8650     3.6940 cd         1 95Y      -0.283600
      7 C15          1.3270     0.0010     2.3840 ca         1 95Y      -0.306300
      8 C14          1.3900     0.0000     0.0000 ca         1 95Y      -0.278300
      9 C12         -5.3360    -4.1030     3.4790 cd         1 95Y      -0.144300
     10 C18          2.0660     0.0000     1.2100 ca         1 95Y       0.062100
     11 C23         -2.1410    -0.0130    -0.9870 c3         1 95Y       0.132300
     12 C24         -0.2820    -1.1500    -2.0400 c3         1 95Y       0.132300
     13 C25         -5.5490    -5.5020     3.9980 c3         1 95Y      -0.028800
     14 C27         -1.0160    -1.0850    -3.3810 c3         1 95Y       0.134900
     15 C28         -2.8570     0.0410    -2.3390 c3         1 95Y       0.134900
     16 C29         -7.2020    -4.8490     0.8360 c3         1 95Y       0.140400
     17 C30         -8.8660    -5.9190    -0.5190 c3         1 95Y       0.131700
     18 N11         -0.8110    -0.0010     3.4850 ns         1 95Y      -0.552400
     19 N13         -0.6880    -0.0070    -1.2080 nh         1 95Y      -0.696300
     20 N3          -2.8720    -0.2100     4.5610 ns         1 95Y      -0.662300
     21 N6          -0.6760    -0.0010     1.1380 nb         1 95Y      -0.724000
     22 O19         -2.7160    -0.1060     2.3480 o          1 95Y      -0.561100
     23 O20         -2.4270    -1.0600    -3.1450 os         1 95Y      -0.425600
     24 O26         -7.4770    -5.7790    -0.2140 os         1 95Y      -0.433600
     25 S1          -4.5220    -0.3370     4.4890 sy         1 95Y       1.454900
     26 S4          -5.0990    -2.0830     1.9600 ss         1 95Y       0.033200
     27 Br22         3.9560     0.0020     1.2600 br         1 95Y      -0.074100
     28 H1          -4.9730    -3.1420     5.3890 ha         1 95Y       0.157000
     29 H2           1.8250     0.0010     3.3450 ha         1 95Y       0.147000
     30 H3           1.9380    -0.0010    -0.9340 ha         1 95Y       0.158000
     31 H4          -5.3270    -5.7620     1.3570 hc         1 95Y       0.069200
     32 H5          -5.1970    -4.4580     0.1680 hc         1 95Y       0.069200
     33 H6          -2.4220    -0.9200    -0.4660 h1         1 95Y       0.063950
     34 H7          -2.4190     0.8520    -0.3970 h1         1 95Y       0.063950
     35 H8           0.7870    -1.1090    -2.2120 h1         1 95Y       0.063950
     36 H9          -0.5370    -2.0730    -1.5330 h1         1 95Y       0.063950
     37 H10         -6.5900    -5.7760     3.8780 hc         1 95Y       0.044700
     38 H11         -4.9280    -6.1930     3.4400 hc         1 95Y       0.044700
     39 H12         -5.2830    -5.5430     5.0470 hc         1 95Y       0.044700
     40 H13         -0.7230    -0.1850    -3.9090 h1         1 95Y       0.056450
     41 H14         -0.7650    -1.9560    -3.9730 h1         1 95Y       0.056450
     42 H15         -3.9270    -0.0220    -2.1830 h1         1 95Y       0.056450
     43 H16         -2.6130     0.9710    -2.8390 h1         1 95Y       0.056450
     44 H17         -7.6970    -5.1720     1.7430 h1         1 95Y       0.029700
     45 H18         -7.5670    -3.8690     0.5540 h1         1 95Y       0.029700
     46 H19         -9.2690    -4.9570    -0.8130 h1         1 95Y       0.031700
     47 H20         -9.3930    -6.2790     0.3550 h1         1 95Y       0.031700
     48 H21         -8.9880    -6.6250    -1.3310 h1         1 95Y       0.031700
     49 H22         -0.3540     0.0820     4.3720 hn         1 95Y       0.332500
     50 H23         -2.4110    -0.1850     5.4490 hn         1 95Y       0.338500
     51 C21         -5.6920    -4.7820     1.0750 c3         1 95Y      -0.010100
     52 O16         -4.9650     0.6890     3.6120 o          1 95Y      -0.610300
     53 O17         -4.9740    -0.4640     5.8300 o          1 95Y      -0.610300
@<TRIPOS>BOND
     1    23    14 1
     2    23    15 1
     3    14    12 1
     4    15    11 1
     5    12    19 1
     6    11    19 1
     7    19     1 1
     8     1    21 ar
     9     1     8 ar
    10    21     3 ar
    11     8    10 ar
    12     3    18 1
    13     3     7 ar
    14    18     2 1
    15    16    51 1
    16    16    24 1
    17    26     5 1
    18    26     6 1
    19    10     7 ar
    20    10    27 1
    21    51     5 1
    22    20     2 1
    23    20    25 1
    24     2    22 2
    25    52    25 2
    26     5     9 2
    27    24    17 1
    28     6    25 1
    29     6     4 2
    30    25    53 2
    31     9     4 1
    32     9    13 1
    33     4    28 1
    34     7    29 1
    35     8    30 1
    36    51    31 1
    37    51    32 1
    38    11    33 1
    39    11    34 1
    40    12    35 1
    41    12    36 1
    42    13    37 1
    43    13    38 1
    44    13    39 1
    45    14    40 1
    46    14    41 1
    47    15    42 1
    48    15    43 1
    49    16    44 1
    50    16    45 1
    51    17    46 1
    52    17    47 1
    53    17    48 1
    54    18    49 1
    55    20    50 1
@<TRIPOS>SUBSTRUCTURE
     1 95Y         1 TEMP              0 ****  ****    0 ROOT
