@<TRIPOS>MOLECULE
molecule
   26    26     1     0     0
SMALL
bcc


@<TRIPOS>ATOM
      1 C1           0.0000     0.0000     0.0000 c3         1 95Z       0.330900
      2 O1          -0.4760    -1.1940     0.6240 oh         1 95Z      -0.587800
      3 C2           1.5310     0.0000     0.0000 c3         1 95Z       0.044500
      4 N2           2.0210     1.2010    -0.6900 nz         1 95Z      -0.803600
      5 C3           2.0330     0.0000     1.4470 c3         1 95Z       0.105100
      6 O3           3.4600     0.0740     1.4570 oh         1 95Z      -0.620800
      7 C4           1.4510     1.2140     2.1780 c3         1 95Z       0.111100
      8 O4           1.8550     1.1840     3.5480 oh         1 95Z      -0.563800
      9 C5          -0.0770     1.1660     2.0940 c3         1 95Z       0.131100
     10 O5          -0.4760     1.1370     0.7220 os         1 95Z      -0.407600
     11 C6          -0.6630     2.4070     2.7700 c3         1 95Z       0.156400
     12 O6          -2.0880     2.3070     2.7940 oh         1 95Z      -0.592800
     13 H1          -0.3590     0.0470    -1.0210 h2         1 95Z       0.086700
     14 H2          -1.0810    -1.6310     0.0470 ho         1 95Z       0.449000
     15 H3           1.8910    -0.8870    -0.5070 hx         1 95Z       0.126700
     16 H4           1.9720     1.0600    -1.6800 hn         1 95Z       0.463133
     17 H5           1.4540     1.9860    -0.4370 hn         1 95Z       0.463133
     18 H7           1.7090    -0.9080     1.9410 h1         1 95Z       0.123700
     19 H8           3.8150    -0.7420     1.7690 ho         1 95Z       0.451000
     20 H9           1.8100     2.1220     1.7100 h1         1 95Z       0.024700
     21 H10          2.5200     1.8370     3.6940 ho         1 95Z       0.429000
     22 H11         -0.4360     0.2740     2.5910 h1         1 95Z       0.109700
     23 H12         -0.2890     2.4770     3.7840 h1         1 95Z       0.042200
     24 H13         -0.3720     3.2920     2.2160 h1         1 95Z       0.042200
     25 H14         -2.4440     3.0210     3.2970 ho         1 95Z       0.424000
     26 H23          2.9710     1.3730    -0.4270 hn         1 95Z       0.463133
@<TRIPOS>BOND
     1    12    11 1
     2     8     7 1
     3    11     9 1
     4     7     9 1
     5     7     5 1
     6     9    10 1
     7     5     6 1
     8     5     3 1
     9     3     4 1
    10     3     1 1
    11    10     1 1
    12     1     2 1
    13     1    13 1
    14     2    14 1
    15     3    15 1
    16     4    16 1
    17     4    17 1
    18     5    18 1
    19     6    19 1
    20     7    20 1
    21     8    21 1
    22     9    22 1
    23    11    23 1
    24    11    24 1
    25    12    25 1
    26    26     4 1
@<TRIPOS>SUBSTRUCTURE
     1 95Z         1 TEMP              0 ****  ****    0 ROOT
