@<TRIPOS>MOLECULE
molecule
   39    43     1     0     0
SMALL
bcc


@<TRIPOS>ATOM
      1 C10          0.0000     0.0000     0.0000 cc         1 960      -0.277300
      2 N12         -6.8650    -2.5020    -1.5430 na         1 960       0.256200
      3 C13         -6.8140    -3.7360    -0.9460 cd         1 960      -0.046300
      4 C15         -5.3430    -2.4800     0.0270 cc         1 960       0.124600
      5 C17         -8.5710    -3.2130    -2.9970 cd         1 960       0.494300
      6 C20          1.3650     0.0000     0.0000 cd         1 960      -0.089300
      7 C24          3.1640    -0.0010     1.7440 c3         1 960       0.061600
      8 C01         -0.8770    -0.0050    -1.1980 ca         1 960      -0.057300
      9 C02         -0.3200    -0.0050    -2.4820 ca         1 960       0.397200
     10 C04         -2.4100    -0.0160    -3.4680 ca         1 960       0.275000
     11 C05         -3.0410    -0.0220    -2.2090 ca         1 960      -0.127500
     12 C06         -2.2610    -0.0160    -1.0550 ca         1 960      -0.128000
     13 C07         -3.4410    -0.0230    -4.4390 cd         1 960       0.312200
     14 C11         -5.9390    -1.7200    -0.9220 cd         1 960      -0.343200
     15 C18         -8.5460    -4.4840    -2.4100 cc         1 960      -0.244300
     16 C19         -7.6800    -4.7530    -1.3940 cd         1 960      -0.028000
     17 C23         -0.4250     0.0000     1.3430 cc         1 960       0.355200
     18 N03         -1.0780    -0.0100    -3.5520 nb         1 960      -0.633000
     19 N08         -4.5900    -0.0310    -3.8290 nc         1 960      -0.457100
     20 N09         -4.3920    -0.0260    -2.4420 na         1 960      -0.078600
     21 N14         -5.8860    -3.6970    -0.0000 nc         1 960      -0.292600
     22 N16         -7.7680    -2.2660    -2.5840 nc         1 960      -0.441800
     23 N21          1.7730     0.0000     1.2850 na         1 960       0.074400
     24 N22          0.6380    -0.0000     2.1040 nd         1 960      -0.505800
     25 O27         -6.7430     0.4980    -1.9060 o          1 960      -0.588800
     26 O28         -5.0010     0.5180    -0.1140 o          1 960      -0.588800
     27 S26         -5.5790    -0.0340    -1.2890 sy         1 960       1.447900
     28 H1          -4.5570    -2.1530     0.6980 h4         1 960       0.203000
     29 H2           2.0020     0.1060    -0.8700 h4         1 960       0.174000
     30 H3           3.6280     0.9450     1.4930 h1         1 960       0.058367
     31 H4           3.7030    -0.8070     1.2610 h1         1 960       0.058367
     32 H5           3.1900    -0.1420     2.8180 h1         1 960       0.058367
     33 H6           0.7570    -0.0010    -2.5940 h4         1 960       0.025100
     34 H7          -2.7100     0.2290    -0.1000 ha         1 960       0.172000
     35 H8          -3.2970    -0.0240    -5.5130 h4         1 960       0.075800
     36 H9          -9.2180    -5.2560    -2.7640 ha         1 960       0.166000
     37 H10         -7.6570    -5.7350    -0.9370 ha         1 960       0.176000
     38 H11         -1.4530     0.0000     1.6850 h4         1 960       0.058100
     39 Cl1         -9.6810    -2.8890    -4.2910 cl         1 960      -0.096000
@<TRIPOS>BOND
     1    25    27 2
     2    19    13 2
     3    19    20 1
     4    26    27 2
     5    27    20 1
     6    27    14 1
     7    13    10 1
     8    20    11 1
     9     4    14 2
    10     4    21 1
    11    14     2 1
    12    10    11 ar
    13    10    18 ar
    14    11    12 ar
    15    18     9 ar
    16    21     3 2
    17    12     8 ar
    18     2    22 1
    19     2     3 1
    20    22     5 2
    21     3    16 1
    22     9     8 ar
    23     8     1 1
    24     6     1 2
    25     6    23 1
    26     1    17 1
    27     5    39 1
    28     5    15 1
    29    16    15 2
    30    23     7 1
    31    23    24 1
    32    17    24 2
    33     4    28 1
    34     6    29 1
    35     7    30 1
    36     7    31 1
    37     7    32 1
    38     9    33 1
    39    12    34 1
    40    13    35 1
    41    15    36 1
    42    16    37 1
    43    17    38 1
@<TRIPOS>SUBSTRUCTURE
     1 960         1 TEMP              0 ****  ****    0 ROOT
