@<TRIPOS>MOLECULE
961
   54    56     1     0     0
SMALL
bcc


@<TRIPOS>ATOM
      1 C1           0.0000     0.0000     0.0000 ca         1 961       0.021900
      2 C2           1.3780     0.0000     0.0000 ca         1 961      -0.080000
      3 C3           2.0740     0.0000     1.2120 ca         1 961      -0.087600
      4 C4           1.3700     0.0060     2.4190 ca         1 961      -0.073000
      5 C5          -0.0070     0.0120     2.4120 ca         1 961      -0.127000
      6 C6          -0.6970     0.0120     1.2060 ca         1 961      -0.158400
      7 C7           3.5490    -0.0050     1.2170 c          1 961       0.972200
      8 C8          -4.7850     1.8280     3.4440 ca         1 961      -0.065000
      9 C9          -4.6560     1.1120     2.2730 ca         1 961      -0.120300
     10 C10         -4.8810     1.7350     1.0600 ca         1 961      -0.103000
     11 C11         -5.2300     3.0680     1.0290 ca         1 961      -0.108000
     12 C12         -5.3600     3.7920     2.2090 ca         1 961      -0.063300
     13 C13         -5.7360     5.2460     2.0990 c3         1 961      -0.006700
     14 C14         -6.2500     5.7690     3.4390 c3         1 961      -0.029400
     15 C15         -5.2280     5.4040     4.5230 c3         1 961      -0.029400
     16 C16         -5.2680     3.8920     4.7320 c3         1 961      -0.007700
     17 C17         -5.1390     3.1720     3.4160 ca         1 961      -0.067300
     18 C18         -4.1130     3.4790     5.6470 c3         1 961       0.000400
     19 C19         -6.5950     3.5080     5.3890 c3         1 961       0.000400
     20 C20         -6.8320     5.4070     1.0430 c3         1 961       0.001900
     21 C21         -4.5070     6.0550     1.6800 c3         1 961       0.001900
     22 C22         -4.2710    -0.3440     2.3160 c3         1 961       0.180400
     23 C23         -2.7710    -0.4680     2.2620 c          1 961       0.525100
     24 N6          -2.0920     0.0170     1.2030 ns         1 961      -0.005100
     25 F1          -0.6750    -0.0010    -1.1700 f          1 961      -0.151900
     26 O22         -4.7530    -0.9290     3.5290 oh         1 961      -0.553800
     27 O23         -2.1730    -1.0050     3.1700 o          1 961      -0.613100
     28 O71          4.1530    -0.0050     2.2710 o          1 961      -0.880300
     29 O72          4.2260    -0.0110     0.0520 o          1 961      -0.880300
     30 H2           1.9210    -0.0070    -0.9380 ha         1 961       0.144000
     31 H4           1.9080     0.0060     3.3590 ha         1 961       0.126000
     32 H5          -0.5520     0.0190     3.3480 ha         1 961       0.143000
     33 H8          -4.6090     1.3400     4.3950 ha         1 961       0.136000
     34 H10         -4.7810     1.1790     0.1360 ha         1 961       0.102000
     35 H11         -5.4060     3.5550     0.0780 ha         1 961       0.111000
     36 H141        -7.2030     5.3080     3.6680 hc         1 961       0.019200
     37 H142        -6.3600     6.8450     3.3920 hc         1 961       0.019200
     38 H151        -5.5050     5.8950     5.4480 hc         1 961       0.025200
     39 H152        -4.2390     5.6880     4.1860 hc         1 961       0.025200
     40 H181        -4.0590     4.1580     6.4890 hc         1 961       0.009033
     41 H182        -4.2800     2.4710     6.0070 hc         1 961       0.009033
     42 H183        -3.1830     3.5150     5.0940 hc         1 961       0.009033
     43 H191        -6.4660     2.5960     5.9590 hc         1 961       0.009033
     44 H192        -6.9150     4.3040     6.0500 hc         1 961       0.009033
     45 H193        -7.3460     3.3520     4.6230 hc         1 961       0.009033
     46 H201        -6.3990     5.3030     0.0550 hc         1 961       0.007700
     47 H202        -7.5870     4.6440     1.1880 hc         1 961       0.007700
     48 H203        -7.2840     6.3860     1.1380 hc         1 961       0.007700
     49 H211        -4.6400     7.0900     1.9710 hc         1 961       0.007700
     50 H212        -4.3850     5.9950     0.6050 hc         1 961       0.007700
     51 H213        -3.6270     5.6530     2.1660 hc         1 961       0.007700
     52 H22         -4.7060    -0.8580     1.4690 h1         1 961       0.006700
     53 HN6         -2.5900     0.3540     0.4030 hn         1 961       0.162500
     54 HO22        -5.2480    -1.7060     3.3280 ho         1 961       0.385000
@<TRIPOS>BOND
     1     1     2 ar  
     2     1     6 ar  
     3     1    25 1   
     4     2     3 ar  
     5     2    30 1   
     6     3     4 ar  
     7     3     7 1   
     8     4     5 ar  
     9     4    31 1   
    10     5     6 ar  
    11     5    32 1   
    12     6    24 1   
    13     7    28 1   
    14     7    29 1   
    15     8     9 ar  
    16     8    17 ar  
    17     8    33 1   
    18     9    10 ar  
    19     9    22 1   
    20    10    11 ar  
    21    10    34 1   
    22    11    12 ar  
    23    11    35 1   
    24    12    13 1   
    25    12    17 ar  
    26    13    14 1   
    27    13    20 1   
    28    13    21 1   
    29    14    15 1   
    30    14    36 1   
    31    14    37 1   
    32    15    16 1   
    33    15    38 1   
    34    15    39 1   
    35    16    17 1   
    36    16    18 1   
    37    16    19 1   
    38    18    40 1   
    39    18    41 1   
    40    18    42 1   
    41    19    43 1   
    42    19    44 1   
    43    19    45 1   
    44    20    46 1   
    45    20    47 1   
    46    20    48 1   
    47    21    49 1   
    48    21    50 1   
    49    21    51 1   
    50    22    23 1   
    51    22    26 1   
    52    22    52 1   
    53    23    24 1   
    54    23    27 2   
    55    24    53 1   
    56    26    54 1   
@<TRIPOS>SUBSTRUCTURE
     1 961         1 TEMP              0 ****  ****    0 ROOT
