@<TRIPOS>MOLECULE
molecule
   31    30     1     0     0
SMALL
bcc


@<TRIPOS>ATOM
      1 O12          0.0000     0.0000     0.0000 oh         1 962      -0.599800
      2 C11          1.4290     0.0000     0.0000 c3         1 962       0.092400
      3 C10          1.9390     0.0000     1.4430 c3         1 962       0.147800
      4 N1           1.6760    -1.3110     2.0540 n3         1 962      -0.711600
      5 C6           0.2330    -1.5440     2.1990 c3         1 962       0.155300
      6 C7          -0.2920    -0.7540     3.4000 c3         1 962       0.149100
      7 C9          -1.7530    -1.1330     3.6590 c3         1 962      -0.125600
      8 O8          -0.2050     0.6450     3.1260 oh         1 962      -0.597800
      9 C2           2.3090    -2.3870     1.2820 c3         1 962       0.155300
     10 C3           3.8270    -2.3180     1.4580 c3         1 962       0.149100
     11 O4           4.1620    -2.6160     2.8160 oh         1 962      -0.597800
     12 C5           4.4950    -3.3370     0.5330 c3         1 962      -0.125600
     13 H1          -0.3140     0.3530    -0.8160 ho         1 962       0.392000
     14 H2           1.7900    -0.8840    -0.5110 h1         1 962       0.023200
     15 H3           1.7900     0.8850    -0.5110 h1         1 962       0.023200
     16 H4           3.0040     0.1950     1.4490 h1         1 962       0.076200
     17 H5           1.4270     0.7710     2.0060 h1         1 962       0.076200
     18 H7          -0.2780    -1.2170     1.3010 h1         1 962       0.054700
     19 H8           0.0510    -2.6000     2.3540 h1         1 962       0.054700
     20 H9           0.3030    -0.9890     4.2750 h1         1 962       0.035200
     21 H10         -2.1110    -0.6110     4.5380 hc         1 962       0.040033
     22 H11         -1.8260    -2.2020     3.8200 hc         1 962       0.040033
     23 H12         -2.3560    -0.8550     2.8030 hc         1 962       0.040033
     24 H13         -0.2830     1.1290     3.9310 ho         1 962       0.395000
     25 H14          2.0610    -2.2730     0.2340 h1         1 962       0.054700
     26 H15          1.9470    -3.3450     1.6360 h1         1 962       0.054700
     27 H16          4.1740    -1.3220     1.2100 h1         1 962       0.035200
     28 H17          5.0290    -2.2950     3.0030 ho         1 962       0.395000
     29 H18          4.2000    -3.1420    -0.4910 hc         1 962       0.040033
     30 H19          4.1860    -4.3360     0.8140 hc         1 962       0.040033
     31 H20          5.5710    -3.2530     0.6210 hc         1 962       0.040033
@<TRIPOS>BOND
     1     1     2 1
     2     2     3 1
     3     3     4 1
     4     4     5 1
     5     4     9 1
     6     8     6 1
     7     6     5 1
     8     6     7 1
     9    12    10 1
    10     9    10 1
    11    10    11 1
    12     1    13 1
    13     2    14 1
    14     2    15 1
    15     3    16 1
    16     3    17 1
    17     5    18 1
    18     5    19 1
    19     6    20 1
    20     7    21 1
    21     7    22 1
    22     7    23 1
    23     8    24 1
    24     9    25 1
    25     9    26 1
    26    10    27 1
    27    11    28 1
    28    12    29 1
    29    12    30 1
    30    12    31 1
@<TRIPOS>SUBSTRUCTURE
     1 962         1 TEMP              0 ****  ****    0 ROOT
