@<TRIPOS>MOLECULE
964
   57    58     1     0     0
SMALL
bcc


@<TRIPOS>ATOM
      1 O31          0.0000     0.0000     0.0000 o          1 964      -0.853800
      2 C1         -12.7140     8.9260    -9.5600 c3         1 964      -0.067100
      3 C2         -12.7640     7.8220    -8.5350 c          1 964       0.570100
      4 N4         -11.8510     7.7810    -7.5440 ns         1 964      -0.207900
      5 O3         -13.6250     6.9720    -8.6010 o          1 964      -0.640100
      6 C29          1.2130     0.0000     0.0000 c          1 964       0.857100
      7 O30          1.8870     0.0000     1.1660 o          1 964      -0.853800
      8 C24          1.9540     0.0030    -1.2830 ca         1 964       0.285500
      9 N25          3.2780    -0.1130    -1.2900 nb         1 964      -0.498000
     10 C26          3.9340    -0.1100    -2.4330 ca         1 964       0.260900
     11 C27          3.2470     0.0080    -3.6350 ca         1 964       0.235900
     12 N28          1.9330     0.1180    -3.6430 nb         1 964      -0.559000
     13 C22          1.2600     0.1170    -2.4970 ca         1 964       0.221500
     14 C21         -0.2180     0.2400    -2.5010 c          1 964       0.550600
     15 O23         -0.9100    -0.7490    -2.6360 o          1 964      -0.652100
     16 N20         -0.7940     1.4490    -2.3560 ns         1 964      -0.169900
     17 C17         -2.2540     1.5720    -2.3600 c3         1 964       0.021700
     18 C18         -2.6690     2.7580    -1.4880 c3         1 964      -0.044900
     19 C19         -4.1940     2.8850    -1.4930 c3         1 964      -0.008400
     20 C16         -2.7420     1.7960    -3.7910 c3         1 964      -0.044900
     21 C15         -4.2670     1.9230    -3.7970 c3         1 964      -0.008400
     22 C13         -4.6820     3.1090    -2.9250 c3         1 964      -0.123700
     23 C12         -6.1830     3.2350    -2.9290 c          1 964       0.581100
     24 O14         -6.8010     3.1530    -1.8900 o          1 964      -0.637100
     25 N11         -6.8390     3.4380    -4.0890 ns         1 964      -0.219900
     26 C10         -8.2980     3.5610    -4.0930 c3         1 964       0.035000
     27 C9          -8.7870     3.7840    -5.5250 c3         1 964       0.043700
     28 S7         -10.8190     5.5660    -4.3090 ss         1 964      -0.174100
     29 C5         -11.8990     6.7090    -6.5470 c3         1 964       0.033000
     30 C6         -10.7600     6.8940    -5.5430 c3         1 964       0.035700
     31 S8         -10.5950     3.9350    -5.5310 ss         1 964      -0.180100
     32 H11A       -13.5210     8.7950   -10.2710 hc         1 964       0.021367
     33 H12        -12.8210     9.8830    -9.0650 hc         1 964       0.021367
     34 H13A       -11.7650     8.8920   -10.0810 hc         1 964       0.021367
     35 H4         -11.1410     8.4840    -7.4890 hn         1 964       0.172500
     36 H26          5.0140    -0.2020    -2.4350 h4         1 964      -0.029900
     37 H27          3.7940     0.0100    -4.5700 h4         1 964      -0.030900
     38 H20         -0.2240     2.2650    -2.2510 hn         1 964       0.165500
     39 H17         -2.6980     0.6650    -1.9670 h1         1 964       0.075700
     40 H181        -2.3240     2.5970    -0.4740 hc         1 964       0.022950
     41 H182        -2.2310     3.6660    -1.8840 hc         1 964       0.022950
     42 H191        -4.4860     3.7270    -0.8770 hc         1 964       0.021450
     43 H192        -4.6320     1.9750    -1.1020 hc         1 964       0.021450
     44 H161        -2.3040     2.7060    -4.1830 hc         1 964       0.022950
     45 H162        -2.4490     0.9540    -4.4070 hc         1 964       0.022950
     46 H151        -4.6110     2.0850    -4.8110 hc         1 964       0.021450
     47 H152        -4.7050     1.0150    -3.4010 hc         1 964       0.021450
     48 H13         -4.2380     4.0160    -3.3180 hc         1 964       0.033700
     49 H11         -6.3280     3.5140    -4.9460 hn         1 964       0.176500
     50 H101        -8.7380     2.6530    -3.6990 h1         1 964       0.048200
     51 H102        -8.5920     4.4010    -3.4760 h1         1 964       0.048200
     52 H91         -8.4930     2.9440    -6.1420 h1         1 964       0.052200
     53 H92         -8.3480     4.6920    -5.9190 h1         1 964       0.052200
     54 H51        -11.7930     5.7510    -7.0420 h1         1 964       0.050200
     55 H52        -12.8490     6.7420    -6.0270 h1         1 964       0.050200
     56 H61         -9.8110     6.8610    -6.0640 h1         1 964       0.051700
     57 H62        -10.8670     7.8520    -5.0480 h1         1 964       0.051700
@<TRIPOS>BOND
     1     1     6 1   
     2     2     3 1   
     3     2    32 1   
     4     2    33 1   
     5     2    34 1   
     6     3     4 1   
     7     3     5 2   
     8     4    29 1   
     9     4    35 1   
    10     6     7 1   
    11     6     8 1   
    12     8     9 ar  
    13     8    13 ar  
    14     9    10 ar  
    15    10    11 ar  
    16    10    36 1   
    17    11    12 ar  
    18    11    37 1   
    19    12    13 ar  
    20    13    14 1   
    21    14    15 2   
    22    14    16 1   
    23    16    17 1   
    24    16    38 1   
    25    17    18 1   
    26    17    20 1   
    27    17    39 1   
    28    18    19 1   
    29    18    40 1   
    30    18    41 1   
    31    19    22 1   
    32    19    42 1   
    33    19    43 1   
    34    20    21 1   
    35    20    44 1   
    36    20    45 1   
    37    21    22 1   
    38    21    46 1   
    39    21    47 1   
    40    22    23 1   
    41    22    48 1   
    42    23    24 2   
    43    23    25 1   
    44    25    26 1   
    45    25    49 1   
    46    26    27 1   
    47    26    50 1   
    48    26    51 1   
    49    27    31 1   
    50    27    52 1   
    51    27    53 1   
    52    28    30 1   
    53    28    31 1   
    54    29    30 1   
    55    29    54 1   
    56    29    55 1   
    57    30    56 1   
    58    30    57 1   
@<TRIPOS>SUBSTRUCTURE
     1 964         1 TEMP              0 ****  ****    0 ROOT
