@<TRIPOS>MOLECULE
molecule
   71    74     1     0     0
SMALL
bcc


@<TRIPOS>ATOM
      1 O37          0.0000     0.0000     0.0000 o          1 965      -0.842800
      2 C35          1.3420     0.0000     0.0000 c          1 965       0.893600
      3 O36          1.9460     0.0000     1.0470 o          1 965      -0.842800
      4 C34          2.0960     0.0010    -1.3050 c3         1 965      -0.154100
      5 C32          3.5780     0.0010    -1.0300 ca         1 965       0.028700
      6 C31          4.2570    -1.1970    -0.9030 ca         1 965      -0.154000
      7 C30          5.6170    -1.2000    -0.6510 ca         1 965      -0.102000
      8 C29          6.3000    -0.0060    -0.5220 ca         1 965      -0.251000
      9 C28          5.6200     1.1970    -0.6490 ca         1 965       0.126100
     10 O27          6.2900     2.3740    -0.5240 os         1 965      -0.337900
     11 C26          7.6930     2.2970    -0.2620 c3         1 965       0.143400
     12 C25          8.2690     3.7100    -0.1550 c3         1 965      -0.086400
     13 C17          9.7710     3.6270     0.1250 c3         1 965       0.159800
     14 N09         10.3250     4.9840     0.2280 n3         1 965      -0.717600
     15 C16         10.2470     5.6840    -1.0610 c3         1 965       0.201100
     16 C18         10.6920     7.1130    -0.8840 ca         1 965      -0.068300
     17 C23          9.7580     8.1020    -0.6340 ca         1 965      -0.066000
     18 C22         10.1660     9.4130    -0.4710 ca         1 965      -0.132000
     19 C21         11.5060     9.7360    -0.5600 ca         1 965      -0.082000
     20 C20         12.4410     8.7480    -0.8100 ca         1 965      -0.182300
     21 C19         12.0340     7.4360    -0.9660 ca         1 965       0.061400
     22 Cl4         13.2080     6.1940    -1.2720 cl         1 965      -0.083400
     23 C39         13.9030     9.1020    -0.9070 c3         1 965       0.676200
     24 F41         14.0610    10.4830    -0.7500 f          1 965      -0.221633
     25 F40         14.6110     8.4350     0.0980 f          1 965      -0.221633
     26 F42         14.3940     8.7150    -2.1590 f          1 965      -0.221633
     27 C08         11.7060     4.9520     0.7270 c3         1 965       0.159800
     28 C07         11.7210     4.3910     2.1510 c3         1 965       0.018900
     29 C01         13.1460     4.2620     2.6260 ca         1 965      -0.062300
     30 C02         13.5930     3.0630     3.1490 ca         1 965      -0.119750
     31 C03         14.9000     2.9450     3.5840 ca         1 965      -0.126750
     32 C04         15.7590     4.0240     3.4940 ca         1 965      -0.134000
     33 C05         15.3120     5.2220     2.9680 ca         1 965      -0.126750
     34 C06         14.0060     5.3390     2.5290 ca         1 965      -0.119750
     35 C10         10.9700     5.3230     3.0660 ca         1 965      -0.062300
     36 C15         11.3060     6.6630     3.1150 ca         1 965      -0.119750
     37 C14         10.6170     7.5190     3.9550 ca         1 965      -0.126750
     38 C13          9.5910     7.0340     4.7450 ca         1 965      -0.134000
     39 C12          9.2560     5.6940     4.6960 ca         1 965      -0.126750
     40 C11          9.9420     4.8400     3.8530 ca         1 965      -0.119750
     41 C33          4.2580     1.1980    -0.9080 ca         1 965      -0.148000
     42 H341         1.8350     0.8860    -1.8730 hc         1 965       0.041200
     43 H342         1.8350    -0.8830    -1.8740 hc         1 965       0.041200
     44 H31          3.7240    -2.1340    -1.0040 ha         1 965       0.129000
     45 H30          6.1470    -2.1390    -0.5520 ha         1 965       0.108000
     46 H29          7.3650    -0.0090    -0.3240 ha         1 965       0.109000
     47 H261         8.1820     1.7670    -1.0710 h1         1 965       0.029700
     48 H262         7.8580     1.7670     0.6680 h1         1 965       0.029700
     49 H251         7.7790     4.2390     0.6530 hc         1 965       0.060200
     50 H252         8.1040     4.2390    -1.0860 hc         1 965       0.060200
     51 H171        10.2600     3.0980    -0.6830 h1         1 965       0.037200
     52 H172         9.9360     3.0980     1.0560 h1         1 965       0.037200
     53 H161        10.8910     5.1920    -1.7790 h1         1 965       0.054700
     54 H162         9.2250     5.6660    -1.4210 h1         1 965       0.054700
     55 H23          8.7060     7.8490    -0.5650 ha         1 965       0.156000
     56 H22          9.4340    10.1870    -0.2760 ha         1 965       0.144000
     57 H21         11.8250    10.7640    -0.4350 ha         1 965       0.152000
     58 H081        12.3080     4.3210     0.0840 h1         1 965       0.046700
     59 H082        12.1120     5.9560     0.7300 h1         1 965       0.046700
     60 H07         11.2470     3.4170     2.1600 hc         1 965       0.065700
     61 H02         12.9200     2.2180     3.2190 ha         1 965       0.131500
     62 H03         15.2510     2.0060     3.9950 ha         1 965       0.126750
     63 H04         16.7830     3.9310     3.8370 ha         1 965       0.124000
     64 H05         15.9860     6.0670     2.8960 ha         1 965       0.126750
     65 H06         13.6560     6.2780     2.1170 ha         1 965       0.131500
     66 H15         12.1090     7.0440     2.4960 ha         1 965       0.131500
     67 H14         10.8800     8.5690     3.9930 ha         1 965       0.126750
     68 H13          9.0520     7.7040     5.4050 ha         1 965       0.124000
     69 H12          8.4510     5.3150     5.3140 ha         1 965       0.126750
     70 H111         9.6780     3.7900     3.8150 ha         1 965       0.131500
     71 H33          3.7250     2.1370    -1.0070 ha         1 965       0.141000
@<TRIPOS>BOND
     1     1     2 1
     2     2     3 1
     3     2     4 1
     4     4     5 1
     5     4    42 1
     6     4    43 1
     7     5     6 ar
     8     5    41 ar
     9     6     7 ar
    10     6    44 1
    11     7     8 ar
    12     7    45 1
    13     8     9 ar
    14     8    46 1
    15     9    10 1
    16     9    41 ar
    17    10    11 1
    18    11    12 1
    19    11    47 1
    20    11    48 1
    21    12    13 1
    22    12    49 1
    23    12    50 1
    24    13    14 1
    25    13    51 1
    26    13    52 1
    27    14    15 1
    28    14    27 1
    29    15    16 1
    30    15    53 1
    31    15    54 1
    32    16    17 ar
    33    16    21 ar
    34    17    18 ar
    35    17    55 1
    36    18    19 ar
    37    18    56 1
    38    19    20 ar
    39    19    57 1
    40    20    21 ar
    41    20    23 1
    42    21    22 1
    43    23    24 1
    44    23    25 1
    45    23    26 1
    46    27    28 1
    47    27    58 1
    48    27    59 1
    49    28    29 1
    50    28    35 1
    51    28    60 1
    52    29    30 ar
    53    29    34 ar
    54    30    31 ar
    55    30    61 1
    56    31    32 ar
    57    31    62 1
    58    32    33 ar
    59    32    63 1
    60    33    34 ar
    61    33    64 1
    62    34    65 1
    63    35    36 ar
    64    35    40 ar
    65    36    37 ar
    66    36    66 1
    67    37    38 ar
    68    37    67 1
    69    38    39 ar
    70    38    68 1
    71    39    40 ar
    72    39    69 1
    73    40    70 1
    74    41    71 1
@<TRIPOS>SUBSTRUCTURE
     1 965         1 TEMP              0 ****  ****    0 ROOT
