@<TRIPOS>MOLECULE
molecule
   30    32     1     0     0
SMALL
bcc


@<TRIPOS>ATOM
      1 N3           0.0000     0.0000     0.0000 ns         1 967      -0.661300
      2 C4           3.4120    -0.0000     1.1680 cc         1 967       0.585300
      3 C6           1.3480     0.0000     0.0000 c          1 967       0.790100
      4 C7           0.1920    -1.2620    -3.5200 cd         1 967       0.077600
      5 C8          -0.8440    -2.6510    -1.9510 ca         1 967      -0.021800
      6 C13          5.4620    -0.0100     0.2900 cd         1 967       0.436200
      7 C20         -0.7280    -4.9710    -2.6230 ca         1 967      -0.086000
      8 C21         -1.8070    -4.3720    -0.5700 ca         1 967      -0.115000
      9 C22         -1.4060    -5.3360    -1.4840 ca         1 967      -0.122000
     10 C11          5.8410    -0.0080     1.5700 cc         1 967      -0.116300
     11 C16         -0.4400    -3.6240    -2.8680 ca         1 967      -0.021100
     12 C19         -1.5380    -3.0550    -0.7900 ca         1 967      -0.107000
     13 C2          -0.4580    -1.3150    -2.3750 cc         1 967      -0.304300
     14 N10          4.1540    -0.0060     0.1050 nd         1 967      -0.679000
     15 N9           2.0210     0.0000     1.1680 ns         1 967      -0.533400
     16 O14         -2.2080     0.0450    -1.1000 o          1 967      -0.611800
     17 O15         -0.2580     1.2230    -2.1280 o          1 967      -0.611800
     18 O17          1.9550    -0.0000    -1.0520 o          1 967      -0.548100
     19 S1          -0.8290     0.1250    -1.4280 sy         1 967       1.436500
     20 S12          0.3960    -2.8590    -4.2140 ss         1 967      -0.059500
     21 S5           4.3910    -0.0010     2.5700 ss         1 967      -0.180300
     22 Br18         7.6240    -0.0140     2.1990 br         1 967      -0.022100
     23 H1          -0.5000    -0.0390     0.8660 hn         1 967       0.337500
     24 H3           6.1690    -0.0150    -0.5310 h4         1 967       0.061100
     25 H4          -0.4170    -5.7280    -3.3330 ha         1 967       0.137000
     26 H5          -2.3400    -4.6690     0.3250 ha         1 967       0.134000
     27 H6          -1.6250    -6.3800    -1.2980 ha         1 967       0.136000
     28 H7          -1.8570    -2.3140    -0.0680 ha         1 967       0.132000
     29 H8           1.5210     0.0180     2.0340 hn         1 967       0.335500
     30 H2           0.5530    -0.3480    -3.9750 h4         1 967       0.201000
@<TRIPOS>BOND
     1     8     9 ar
     2     8    12 ar
     3     9     7 ar
     4    12     5 ar
     5    14     2 2
     6    14     6 1
     7    15     2 1
     8    15     3 1
     9     7    11 ar
    10     2    21 1
    11     1     3 1
    12     1    19 1
    13     6    10 2
    14     5    11 ar
    15     5    13 1
    16    16    19 2
    17     3    18 2
    18    11    20 1
    19    19    13 1
    20    19    17 2
    21    10    21 1
    22    10    22 1
    23    13     4 2
    24    20     4 1
    25     1    23 1
    26     4    30 1
    27     6    24 1
    28     7    25 1
    29     8    26 1
    30     9    27 1
    31    12    28 1
    32    15    29 1
@<TRIPOS>SUBSTRUCTURE
     1 967         1 TEMP              0 ****  ****    0 ROOT
