@<TRIPOS>MOLECULE
968
   37    39     1     0     0
SMALL
bcc


@<TRIPOS>ATOM
      1 O21         0.9930    2.0200   -0.0550 o         1 968     -0.809800
      2 C20         1.0460    0.7630   -0.1450 c         1 968      0.891600
      3 O22         0.5000   -0.0630    0.6210 o         1 968     -0.809800
      4 C18         1.8110    0.2370   -1.3990 c         1 968      0.561100
      5 O23         1.2230    0.1530   -2.4940 o         1 968     -0.636100
      6 N17         3.1890   -0.0530   -1.3290 n         1 968     -0.323200
      7 C19         3.9780   -0.0680   -2.5170 ca        1 968      0.097600
      8 C24         3.8290    1.0330   -3.4010 ca        1 968     -0.146000
      9 C25         4.5660    1.1290   -4.5730 ca        1 968     -0.160000
     10 C26         5.4880    0.1360   -4.8990 ca        1 968     -0.180000
     11 C27         5.6380   -0.9530   -4.0480 ca        1 968     -0.116000
     12 C28         4.8900   -1.0890   -2.8690 ca        1 968     -0.106600
     13 C33         5.1600   -2.3780   -2.1060 c         1 968      0.909200
     14 O34         6.3350   -2.5690   -1.6760 o         1 968     -0.836800
     15 O35         4.2400   -3.2380   -2.0010 o         1 968     -0.836800
     16 C13         3.8680   -0.1320   -0.0820 ca        1 968      0.091600
     17 C12         4.1540   -1.3690    0.4830 ca        1 968     -0.087000
     18 C11         4.9100   -1.4660    1.6720 ca        1 968     -0.104000
     19 C10         5.3830   -0.3450    2.3020 ca        1 968     -0.153000
     20 C3          5.0760    0.9430    1.7890 ca        1 968     -0.056000
     21 C2          5.5320    2.1150    2.4510 ca        1 968     -0.121000
     22 C1          5.1790    3.3660    2.0140 ca        1 968     -0.157000
     23 C6          4.3310    3.4770    0.8800 ca        1 968      0.081100
     24 O36         3.9650    4.7610    0.5140 oh        1 968     -0.538100
     25 C5          3.9060    2.3620    0.1850 ca        1 968     -0.137000
     26 C4          4.2860    1.0640    0.6140 ca        1 968      0.002000
     27 H24         3.0900    1.8160   -3.1650 ha        1 968      0.130000
     28 H25         4.4200    1.9890   -5.2390 ha        1 968      0.093000
     29 H26         6.0840    0.2110   -5.8170 ha        1 968      0.090000
     30 H27         6.3650   -1.7450   -4.2870 ha        1 968      0.125000
     31 H12         3.8340   -2.3020   -0.0250 ha        1 968      0.201000
     32 H11         5.1330   -2.4690    2.0650 ha        1 968      0.118000
     33 H10         5.9990   -0.4190    3.2090 ha        1 968      0.100000
     34 H2          6.1710    1.9980    3.3390 ha        1 968      0.104000
     35 H1          5.5160    4.2790    2.5200 ha        1 968      0.115000
     36 H36         3.1740    4.6760   -0.0400 ho        1 968      0.425000
     37 H5          3.1960    2.4690   -0.6550 ha        1 968      0.178000
@<TRIPOS>BOND
     1    1    2 1
     2    2    3 1
     3    2    4 1
     4    4    5 2
     5    4    6 1
     6    6    7 1
     7    6   16 1
     8    7    8 ar
     9    7   12 ar
    10    8    9 ar
    11    8   27 1
    12    9   10 ar
    13    9   28 1
    14   10   11 ar
    15   10   29 1
    16   11   12 ar
    17   11   30 1
    18   12   13 1
    19   13   14 1
    20   13   15 1
    21   16   17 ar
    22   16   26 ar
    23   17   18 ar
    24   17   31 1
    25   18   19 ar
    26   18   32 1
    27   19   20 ar
    28   19   33 1
    29   20   21 ar
    30   20   26 ar
    31   21   22 ar
    32   21   34 1
    33   22   23 ar
    34   22   35 1
    35   23   24 1
    36   23   25 ar
    37   24   36 1
    38   25   26 ar
    39   25   37 1
@<TRIPOS>SUBSTRUCTURE
     1 968         1 TEMP              0 ****  ****    0 ROOT
