@<TRIPOS>MOLECULE
molecule
   46    49     1     0     0
SMALL
bcc


@<TRIPOS>ATOM
      1 CBB          0.0000     0.0000     0.0000 c3         1 969      -0.091100
      2 CBA          1.5300     0.0000     0.0000 c3         1 969      -0.070400
      3 CAX          2.0390     0.0000     1.4430 c3         1 969       0.203000
      4 CAY          1.5290    -1.2490     2.1640 c3         1 969      -0.125100
      5 OAZ          1.5630     1.1660     2.1160 oh         1 969      -0.572800
      6 CAW          3.5460    -0.0000     1.4430 cc         1 969       0.122900
      7 OAR          4.1720     1.1720     1.3470 os         1 969      -0.150200
      8 CAD          5.5140     1.2480     1.3410 ca         1 969       0.189100
      9 CAF          6.1560     2.4890     1.2400 ca         1 969      -0.163600
     10 CAG          5.3670     3.7330     1.1400 c          1 969       0.581300
     11 OAP          4.1770     3.6870     0.8930 o          1 969      -0.468100
     12 CAH          6.0360     5.0320     1.3440 ca         1 969      -0.161600
     13 CAK          5.2900     6.1950     1.5450 ca         1 969       0.180100
     14 OAQ          3.9350     6.1420     1.5550 oh         1 969      -0.459100
     15 CAL          5.9460     7.4100     1.7350 ca         1 969      -0.208000
     16 CAM          7.3240     7.4680     1.7250 ca         1 969      -0.079000
     17 CAN          8.0770     6.3220     1.5260 ca         1 969      -0.117000
     18 CAI          7.4430     5.0990     1.3360 ca         1 969      -0.103600
     19 CAJ          8.2330     3.8670     1.1260 c          1 969       0.589300
     20 OAO          9.4180     3.9320     0.8680 o          1 969      -0.503100
     21 CAC          7.5600     2.5510     1.2350 ca         1 969      -0.079600
     22 CAE          8.3140     1.3820     1.3310 ca         1 969      -0.127000
     23 CAA          7.6850     0.1570     1.4320 ca         1 969       0.019700
     24 CAS          8.5050    -1.1030     1.5360 c3         1 969      -0.049800
     25 CAB          6.2940     0.0830     1.4380 ca         1 969      -0.228600
     26 CAT          5.5970    -1.2170     1.5460 c          1 969       0.586900
     27 OAU          6.2120    -2.2660     1.6330 o          1 969      -0.548100
     28 CAV          4.1780    -1.1830     1.5460 cd         1 969      -0.358200
     29 HBC         -0.3610     0.2970    -0.9770 hc         1 969       0.041033
     30 HBD         -0.3610    -0.9950     0.2310 hc         1 969       0.041033
     31 HBE         -0.3610     0.6980     0.7460 hc         1 969       0.041033
     32 HBA          1.8910    -0.8840    -0.5110 hc         1 969       0.061200
     33 HBB          1.8910     0.8850    -0.5100 hc         1 969       0.061200
     34 HA0          2.1000    -1.4010     3.0720 hc         1 969       0.054367
     35 HAY          1.6440    -2.1110     1.5170 hc         1 969       0.054367
     36 HAZ          0.4830    -1.1210     2.4120 hc         1 969       0.054367
     37 HBF          1.5760     1.0180     3.0480 ho         1 969       0.407000
     38 HAQ          3.5860     7.0130     1.4630 ho         1 969       0.423000
     39 HAL          5.3690     8.3140     1.8910 ha         1 969       0.139000
     40 HAM          7.8220     8.4190     1.8740 ha         1 969       0.141000
     41 HAN          9.1590     6.3780     1.5200 ha         1 969       0.157000
     42 HAE          9.3960     1.4360     1.3370 ha         1 969       0.162000
     43 HAS          8.2730    -1.6090     2.4650 hc         1 969       0.060700
     44 HAT          9.5580    -0.8510     1.5160 hc         1 969       0.060700
     45 HAU          8.2740    -1.7550     0.7020 hc         1 969       0.060700
     46 HAV          3.6140    -2.1050     1.4850 ha         1 969       0.173000
@<TRIPOS>BOND
     1    16    15 ar
     2    16    17 ar
     3    15    13 ar
     4    17    18 ar
     5    13    14 1
     6    13    12 ar
     7    18    12 ar
     8    18    19 1
     9    12    10 1
    10    20    19 2
    11    19    21 1
    12    10    11 2
    13    10     9 1
    14    21     9 ar
    15    21    22 ar
    16     9     8 ar
    17     4     3 1
    18    22    23 ar
    19     8     7 1
    20     8    25 ar
    21     7     6 1
    22     3     6 1
    23     3     2 1
    24     3     5 1
    25     6    28 2
    26    23    25 ar
    27    23    24 1
    28    25    26 1
    29     2     1 1
    30    28    26 1
    31    26    27 2
    32     1    29 1
    33     1    30 1
    34     1    31 1
    35     2    32 1
    36     2    33 1
    37     4    34 1
    38     4    35 1
    39     4    36 1
    40     5    37 1
    41    14    38 1
    42    15    39 1
    43    16    40 1
    44    17    41 1
    45    22    42 1
    46    24    43 1
    47    24    44 1
    48    24    45 1
    49    28    46 1
@<TRIPOS>SUBSTRUCTURE
     1 969         1 TEMP              0 ****  ****    0 ROOT
