@<TRIPOS>MOLECULE
96A
   47    49     1     0     0
SMALL
bcc


@<TRIPOS>ATOM
      1 N3           0.0000     0.0000     0.0000 ns         1 96A      -0.478000
      2 C5           1.3480     0.0000     0.0000 c2         1 96A       0.240000
      3 C6           3.4120    -0.1070     1.1680 c2         1 96A      -0.009000
      4 C7           5.3920    -0.1850    -0.0230 c2         1 96A      -0.092000
      5 C8          -1.5730    -2.7620    -2.0670 c2         1 96A      -0.039000
      6 C10         -0.4660    -3.1990    -4.2340 c2         1 96A      -0.363000
      7 N12          6.0460    -0.1640    -1.2540 nu         1 96A       0.150000
      8 C13         -1.3120    -3.8210    -3.2330 c2         1 96A      -0.128000
      9 C15          4.0910    -0.2210     2.3740 c2         1 96A      -0.140000
     10 C28          0.1590    -4.7070    -8.7900 c3         1 96A       0.068000
     11 C14          7.2840     0.3600    -1.3500 c3         1 96A       0.131000
     12 C16          6.1320    -0.3140     1.1460 c2         1 96A      -0.179000
     13 C19          5.4740    -0.3270     2.3650 c2         1 96A      -0.061000
     14 C2          -0.8760    -1.5340    -2.4020 c2         1 96A      -0.887000
     15 C27         -0.1960    -3.9150    -6.6110 c3         1 96A       0.056000
     16 N11          2.0230     0.0000     1.1660 ns         1 96A       0.122000
     17 N22          7.9470     0.4260    -2.6410 nz         1 96A       0.770000
     18 N9           4.0710    -0.0920     0.0200 n2         1 96A       0.056000
     19 O20          1.9560     0.0010    -1.0530 o          1 96A      -0.371000
     20 O21          7.8150     0.8040    -0.3880 o          1 96A      -0.324000
     21 O26          0.6300    -4.6440    -7.4750 os         1 96A      -0.275000
     22 S1          -0.8290     0.0010    -1.4330 s6         1 96A       2.403000
     23 S4          -0.1560    -1.7490    -3.7650 ss         1 96A       0.634000
     24 Br24         6.4610    -0.5770     4.0170 br         1 96A       0.093000
     25 H1          -0.5000     0.1920     0.8450 hn         1 96A       0.146000
     26 H2          -2.1690    -2.9320    -1.1780 ha         1 96A       0.136000
     27 H3           6.9810    -0.5140    -1.3300 DU         1 96A       0.019000
     28 H4           3.7090    -0.1370     3.3840 ha         1 96A       0.149000
     29 H5           0.1800    -3.7170    -9.2290 h1         1 96A       0.027000
     30 H6           0.7890    -5.3720    -9.3680 h1         1 96A       0.027000
     31 H7          -0.8580    -5.0810    -8.7920 h1         1 96A       0.027000
     32 H8           7.2110    -0.2260     1.1160 ha         1 96A       0.158000
     33 H9           0.9890    -4.6040    -4.9570 hc         1 96A       0.070000
     34 H10          1.3000    -2.9270    -5.4270 hc         1 96A       0.070000
     35 H11         -1.7490    -5.8560    -3.7530 hc         1 96A       0.048667
     36 H12         -1.3330    -5.6120    -2.0510 hc         1 96A       0.048667
     37 H13         -2.9210    -5.1160    -2.6540 hc         1 96A       0.048667
     38 H14         -1.1070    -4.4710    -6.4270 h1         1 96A       0.037500
     39 H15         -0.4400    -2.9610    -7.0630 h1         1 96A       0.037500
     40 H16          1.5260     0.0710     2.0320 hn         1 96A       0.095000
     41 H17          7.3800     0.9450    -3.2820 hn         1 96A       0.047333
     42 H18          8.8340     0.8790    -2.5380 hn         1 96A       0.047333
     43 C23          0.5330    -3.6790    -5.2870 c3         1 96A       0.001000
     44 O17         -2.2090    -0.0350    -1.0990 o          1 96A      -0.823000
     45 O18         -0.2480     1.0220    -2.2320 o          1 96A      -0.823000
     46 H223         8.0850    -0.5010    -2.9930 hn         1 96A       0.047333
     47 C25         -1.8690    -5.2010    -2.8980 c3         1 96A      -0.021000
@<TRIPOS>BOND
     1     1     2 1   
     2     1    22 1   
     3     1    25 1   
     4     2    16 1   
     5     2    19 1   
     6     3     9 1   
     7     3    16 1   
     8     3    18 1   
     9     4     7 1   
    10     4    12 1   
    11     4    18 1   
    12     5     8 1   
    13     5    14 1   
    14     5    26 1   
    15     6     8 1   
    16     6    23 1   
    17     6    43 1   
    18     7    11 1   
    19     7    27 1   
    20     8    47 1   
    21     9    13 1   
    22     9    28 1   
    23    10    21 1   
    24    10    29 1   
    25    10    30 1   
    26    10    31 1   
    27    11    17 1   
    28    11    20 1   
    29    11    27 1   
    30    12    13 1   
    31    12    32 1   
    32    13    24 1   
    33    14    22 1   
    34    14    23 1   
    35    15    21 1   
    36    15    38 1   
    37    15    39 1   
    38    15    43 1   
    39    16    40 1   
    40    17    41 1   
    41    17    42 1   
    42    17    46 1   
    43    22    44 1   
    44    22    45 1   
    45    33    43 1   
    46    34    43 1   
    47    35    47 1   
    48    36    47 1   
    49    37    47 1   
@<TRIPOS>SUBSTRUCTURE
     1 96A         1 TEMP              0 ****  ****    0 ROOT
