@<TRIPOS>MOLECULE
molecule
   47    48     1     0     0
SMALL
bcc


@<TRIPOS>ATOM
      1 N3           0.0000     0.0000     0.0000 ns         1 96A      -0.656300
      2 C5           1.3480     0.0000     0.0000 c          1 96A       0.790100
      3 C6           3.4120    -0.1070     1.1680 ca         1 96A       0.613200
      4 C7           5.3920    -0.1850    -0.0230 ca         1 96A       0.463200
      5 C8          -1.5730    -2.7620    -2.0670 cc         1 96A      -0.071000
      6 C10         -0.4660    -3.1990    -4.2340 cc         1 96A      -0.227400
      7 N12          6.0460    -0.1640    -1.2540 ns         1 96A      -0.317400
      8 C13         -1.3120    -3.8210    -3.2330 cd         1 96A      -0.130300
      9 C15          4.0910    -0.2210     2.3740 ca         1 96A      -0.237300
     10 C28          0.1590    -4.7070    -8.7900 c3         1 96A       0.132700
     11 C14          7.2840     0.3600    -1.3500 c          1 96A       0.584100
     12 C16          6.1320    -0.3140     1.1460 ca         1 96A      -0.275300
     13 C19          5.4740    -0.3270     2.3650 ca         1 96A       0.057100
     14 C2          -0.8760    -1.5340    -2.4020 cd         1 96A      -0.463600
     15 C27         -0.1960    -3.9150    -6.6110 c3         1 96A       0.141400
     16 N11          2.0230     0.0000     1.1660 ns         1 96A      -0.546400
     17 N22          7.9470     0.4260    -2.6410 nz         1 96A      -0.702400
     18 N9           4.0710    -0.0920     0.0200 nb         1 96A      -0.626000
     19 O20          1.9560     0.0010    -1.0530 o          1 96A      -0.564100
     20 O21          7.8150     0.8040    -0.3880 o          1 96A      -0.509100
     21 O26          0.6300    -4.6440    -7.4750 os         1 96A      -0.430600
     22 S1          -0.8290     0.0010    -1.4330 sy         1 96A       1.427900
     23 S4          -0.1560    -1.7490    -3.7650 ss         1 96A       0.404200
     24 Br24         6.4610    -0.5770     4.0170 br         1 96A      -0.025100
     25 H1          -0.5000     0.1920     0.8450 hn         1 96A       0.350500
     26 H2          -2.1690    -2.9320    -1.1780 ha         1 96A       0.172000
     27 H3           6.9810    -0.5140    -1.3300 hn         1 96A       0.243500
     28 H4           3.7090    -0.1370     3.3840 ha         1 96A       0.179000
     29 H5           0.1800    -3.7170    -9.2290 h1         1 96A       0.031367
     30 H6           0.7890    -5.3720    -9.3680 h1         1 96A       0.031367
     31 H7          -0.8580    -5.0810    -8.7920 h1         1 96A       0.031367
     32 H8           7.2110    -0.2260     1.1160 ha         1 96A       0.174000
     33 H9           0.9890    -4.6040    -4.9570 hc         1 96A       0.064200
     34 H10          1.3000    -2.9270    -5.4270 hc         1 96A       0.064200
     35 H11         -1.7490    -5.8560    -3.7530 hc         1 96A       0.048367
     36 H12         -1.3330    -5.6120    -2.0510 hc         1 96A       0.048367
     37 H13         -2.9210    -5.1160    -2.6540 hc         1 96A       0.048367
     38 H14         -1.1070    -4.4710    -6.4270 h1         1 96A       0.031700
     39 H15         -0.4400    -2.9610    -7.0630 h1         1 96A       0.031700
     40 H16          1.5260     0.0710     2.0320 hn         1 96A       0.349500
     41 H17          7.3800     0.9450    -3.2820 hn         1 96A       0.482800
     42 H18          8.8340     0.8790    -2.5380 hn         1 96A       0.482800
     43 C23          0.5330    -3.6790    -5.2870 c3         1 96A       0.010900
     44 O17         -2.2090    -0.0350    -1.0990 o          1 96A      -0.588300
     45 O18         -0.2480     1.0220    -2.2320 o          1 96A      -0.588300
     46 H223         8.0850    -0.5010    -2.9930 hn         1 96A       0.482800
     47 C25         -1.8690    -5.2010    -2.8980 c3         1 96A      -0.011800
@<TRIPOS>BOND
     1    20    11 2
     2    11    17 1
     3    11     7 1
     4     7     4 1
     5     4    18 ar
     6     4    12 ar
     7    18     3 ar
     8    12    13 ar
     9    16     3 1
    10    16     2 1
    11     3     9 ar
    12    15    43 1
    13    15    21 1
    14    23     6 1
    15    23    14 1
    16    43     6 1
    17     1     2 1
    18     1    22 1
    19    44    22 2
    20     2    19 2
    21     6     8 2
    22    21    10 1
    23    13     9 ar
    24    13    24 1
    25    22    14 1
    26    22    45 2
    27    14     5 2
    28     8     5 1
    29     8    47 1
    30     1    25 1
    31     5    26 1
    32     7    27 1
    33     9    28 1
    34    10    29 1
    35    10    30 1
    36    10    31 1
    37    12    32 1
    38    43    33 1
    39    43    34 1
    40    47    35 1
    41    47    36 1
    42    47    37 1
    43    15    38 1
    44    15    39 1
    45    16    40 1
    46    17    41 1
    47    17    42 1
    48    46    17 1
@<TRIPOS>SUBSTRUCTURE
     1 96A         1 TEMP              0 ****  ****    0 ROOT
