@<TRIPOS>MOLECULE
96B
   24    25     1     0     0
SMALL
bcc


@<TRIPOS>ATOM
      1 N            0.0000     0.0000     0.0000 n7         1 96B      -0.577200
      2 C3           1.4780     0.0000     0.0000 c3         1 96B       0.144800
      3 C            1.8730     0.0000     1.4980 c3         1 96B      -0.055400
      4 C1           0.7810    -0.9170     2.1100 c3         1 96B      -0.036400
      5 C2          -0.4700    -0.5710     1.2750 c3         1 96B       0.176800
      6 C4          -1.2730    -1.8190     1.0120 ca         1 96B      -0.084300
      7 C9          -0.8780    -2.6990     0.0220 ca         1 96B      -0.088000
      8 C5          -2.4000    -2.0870     1.7670 ca         1 96B      -0.088000
      9 C6          -3.1360    -3.2320     1.5260 ca         1 96B      -0.104500
     10 C7          -2.7450    -4.1090     0.5310 ca         1 96B      -0.104000
     11 C8          -1.6150    -3.8430    -0.2190 ca         1 96B      -0.104500
     12 H1          -0.3340     0.9390    -0.0880 hn         1 96B       0.250800
     13 H3           1.8540    -0.8910    -0.4880 h1         1 96B       0.019200
     14 H4           1.8540     0.8910    -0.4880 h1         1 96B       0.019200
     15 H5           2.8580    -0.4280     1.6370 hc         1 96B       0.020700
     16 H6           1.8140     0.9990     1.9130 hc         1 96B       0.020700
     17 H7           0.6210    -0.6750     3.1540 hc         1 96B       0.026200
     18 H8           1.0450    -1.9600     1.9870 hc         1 96B       0.026200
     19 H9          -1.0740     0.1580     1.8020 h1         1 96B       0.019700
     20 H10          0.0070    -2.4910    -0.5660 ha         1 96B       0.108500
     21 H11         -2.7060    -1.4000     2.5460 ha         1 96B       0.108500
     22 H12         -4.0210    -3.4420     2.1160 ha         1 96B       0.100500
     23 H13         -3.3220    -5.0060     0.3420 ha         1 96B       0.100000
     24 H14         -1.3070    -4.5320    -0.9970 ha         1 96B       0.100500
@<TRIPOS>BOND
     1     1     2 1   
     2     1     5 1   
     3     1    12 1   
     4     2     3 1   
     5     2    13 1   
     6     2    14 1   
     7     3     4 1   
     8     3    15 1   
     9     3    16 1   
    10     4     5 1   
    11     4    17 1   
    12     4    18 1   
    13     5     6 1   
    14     5    19 1   
    15     6     7 ar  
    16     6     8 ar  
    17     7    11 ar  
    18     7    20 1   
    19     8     9 ar  
    20     8    21 1   
    21     9    10 ar  
    22     9    22 1   
    23    10    11 ar  
    24    10    23 1   
    25    11    24 1   
@<TRIPOS>SUBSTRUCTURE
     1 96B         1 TEMP              0 ****  ****    0 ROOT
