@<TRIPOS>MOLECULE
molecule
   51    53     1     0     0
SMALL
bcc


@<TRIPOS>ATOM
      1 C01          0.0000     0.0000     0.0000 c3         1 96C      -0.093100
      2 C02          1.5300     0.0000     0.0000 c3         1 96C       0.136400
      3 O03          2.0060     0.0000     1.3470 os         1 96C      -0.331900
      4 C04          3.3540    -0.0010     1.5260 ca         1 96C       0.138100
      5 C05          4.1990     0.0050     0.4240 ca         1 96C      -0.194500
      6 C06          5.5670     0.0040     0.6020 ca         1 96C      -0.083500
      7 C07          6.1010    -0.0010     1.8890 ca         1 96C      -0.042000
      8 C08          7.5720    -0.0010     2.0830 cc         1 96C      -0.245300
      9 C09          8.4640    -0.8390     1.4850 cd         1 96C      -0.102300
     10 N10          9.6970    -0.5140     1.9250 na         1 96C       0.068400
     11 C11         10.9470    -1.1660     1.5310 c3         1 96C       0.064600
     12 N12          9.5780     0.5550     2.8220 nc         1 96C      -0.502800
     13 C13          8.3060     0.8750     2.9210 cd         1 96C       0.403800
     14 C14          7.7410     1.9540     3.7660 ca         1 96C      -0.046500
     15 C15          6.6360     2.6800     3.3240 ca         1 96C      -0.230000
     16 C16          6.1050     3.6830     4.1160 ca         1 96C       0.152100
     17 O17          5.0270     4.3900     3.6860 os         1 96C      -0.312400
     18 C18          4.4920     4.0440     2.4060 c3         1 96C       0.124200
     19 C19          6.6740     3.9680     5.3520 ca         1 96C       0.051100
     20 O20          6.1520     4.9550     6.1300 os         1 96C      -0.324900
     21 C21          5.1280     4.5800     7.0530 c3         1 96C       0.135700
     22 C22          7.7780     3.2460     5.7950 ca         1 96C       0.152100
     23 O23          8.3320     3.5260     7.0040 os         1 96C      -0.312400
     24 C24          9.4630     2.7440     7.3960 c3         1 96C       0.124200
     25 C25          8.3100     2.2420     5.0040 ca         1 96C      -0.230000
     26 C26          5.2500    -0.0060     2.9930 ca         1 96C      -0.083500
     27 C27          3.8830    -0.0000     2.8090 ca         1 96C      -0.194500
     28 H1          -0.3610     0.9020     0.4790 hc         1 96C       0.048367
     29 H2          -0.3610    -0.8660     0.5410 hc         1 96C       0.048367
     30 H3          -0.3610    -0.0360    -1.0210 hc         1 96C       0.048367
     31 H4           1.8920    -0.8840    -0.5110 h1         1 96C       0.033700
     32 H5           1.8910     0.8850    -0.5100 h1         1 96C       0.033700
     33 H6           3.7830     0.0100    -0.5760 ha         1 96C       0.140500
     34 H7           6.2250     0.0090    -0.2590 ha         1 96C       0.139000
     35 H8           8.2180    -1.6710     0.8350 h4         1 96C       0.174000
     36 H9          11.6800    -1.0500     2.3200 h1         1 96C       0.055033
     37 H10         11.3210    -0.7110     0.6220 h1         1 96C       0.055033
     38 H11         10.7660    -2.2200     1.3580 h1         1 96C       0.055033
     39 H12          6.1680     2.4320     2.3790 ha         1 96C       0.153000
     40 H13          3.7740     4.7950     2.1000 h1         1 96C       0.043700
     41 H14          4.0030     3.0800     2.4670 h1         1 96C       0.043700
     42 H15          5.2960     3.9960     1.6800 h1         1 96C       0.043700
     43 H16          4.9560     3.5120     6.9890 h1         1 96C       0.033033
     44 H17          5.4370     4.8360     8.0590 h1         1 96C       0.033033
     45 H18          4.2130     5.1080     6.8110 h1         1 96C       0.033033
     46 H19          9.1820     1.6990     7.4380 h1         1 96C       0.043700
     47 H20         10.2600     2.8750     6.6740 h1         1 96C       0.043700
     48 H21          9.8030     3.0660     8.3730 h1         1 96C       0.043700
     49 H22          9.1700     1.6790     5.3490 ha         1 96C       0.153000
     50 H23          5.6620    -0.0080     3.9950 ha         1 96C       0.139000
     51 H24          3.2220    -0.0040     3.6670 ha         1 96C       0.140500
@<TRIPOS>BOND
     1    18    17 1
     2    17    16 1
     3    21    20 1
     4    20    19 1
     5    16    19 ar
     6    16    15 ar
     7    19    22 ar
     8    15    14 ar
     9    22    23 1
    10    22    25 ar
    11    23    24 1
    12    14    25 ar
    13    14    13 1
    14    12    13 2
    15    12    10 1
    16    13     8 1
    17    10    11 1
    18    10     9 1
    19     6     5 ar
    20     6     7 ar
    21     8     9 2
    22     8     7 1
    23     5     4 ar
    24     7    26 ar
    25     4     3 1
    26     4    27 ar
    27    26    27 ar
    28     3     2 1
    29     2     1 1
    30     1    28 1
    31     1    29 1
    32     1    30 1
    33     2    31 1
    34     2    32 1
    35     5    33 1
    36     6    34 1
    37     9    35 1
    38    11    36 1
    39    11    37 1
    40    11    38 1
    41    15    39 1
    42    18    40 1
    43    18    41 1
    44    18    42 1
    45    21    43 1
    46    21    44 1
    47    21    45 1
    48    24    46 1
    49    24    47 1
    50    24    48 1
    51    25    49 1
    52    26    50 1
    53    27    51 1
@<TRIPOS>SUBSTRUCTURE
     1 96C         1 TEMP              0 ****  ****    0 ROOT
