@<TRIPOS>MOLECULE
96D
   34    35     1     0     0
SMALL
bcc


@<TRIPOS>ATOM
      1 N3           0.0000     0.0000     0.0000 ns         1 96D      -0.316300
      2 C4           1.3480     0.0000     0.0000 c          1 96D       0.611100
      3 C8          -0.4730    -1.5350    -2.2350 ca         1 96D      -0.128500
      4 C10          0.8820    -2.8240    -3.7340 ca         1 96D      -0.088000
      5 C13         -1.2720    -2.6380    -2.0040 ca         1 96D      -0.026000
      6 C15         -1.4340    -6.1300    -3.1020 c3         1 96D       0.590700
      7 C20          6.0810    -0.3130     1.2290 ca         1 96D       0.344000
      8 C21          5.3920    -0.2000     0.0220 ca         1 96D       0.360900
      9 C24          7.5100    -0.4220     1.2310 cg         1 96D       0.121800
     10 C11          0.0850    -3.9300    -3.5050 ca         1 96D      -0.138000
     11 C12         -0.9950    -3.8390    -2.6390 ca         1 96D       0.098100
     12 C18          4.0980    -0.2130     2.3780 ca         1 96D       0.235900
     13 C23          3.4080    -0.1060     1.1680 ca         1 96D       0.269900
     14 C9           0.6030    -1.6280    -3.0990 ca         1 96D       0.000000
     15 F16         -1.4870    -5.9090    -4.4830 f          1 96D      -0.223800
     16 F17         -0.1390    -6.5190    -2.7410 f          1 96D      -0.223800
     17 N19          5.4100    -0.3140     2.3800 nb         1 96D      -0.486000
     18 N2           2.0230     0.0000     1.1670 ns         1 96D      -0.103400
     19 N22          4.0750    -0.1000     0.0210 nb         1 96D      -0.527000
     20 N25          8.6410    -0.5090     1.2140 n1         1 96D      -0.353800
     21 O14         -1.7790    -4.9260    -2.4140 os         1 96D      -0.319900
     22 O5           1.9560     0.0020    -1.0540 o          1 96D      -0.601100
     23 O6          -2.2090    -0.0410    -1.0990 o          1 96D      -0.564300
     24 O7          -0.2490     1.0120    -2.2370 o          1 96D      -0.564300
     25 S1          -0.8280    -0.0070    -1.4330 sy         1 96D       1.052900
     26 H1          -0.5000     0.1200     0.8590 hn         1 96D       0.223500
     27 H2           1.7250    -2.8940    -4.4100 ha         1 96D       0.114000
     28 H3          -2.1140    -2.5650    -1.3270 ha         1 96D       0.131000
     29 H4          -2.1750    -6.8710    -2.8270 h3         1 96D       0.061700
     30 H5           5.9370    -0.1920    -0.9140 h4         1 96D       0.001100
     31 H6           0.3040    -4.8680    -4.0030 ha         1 96D       0.132000
     32 H7           3.6010     0.0310     3.3080 h4         1 96D      -0.004900
     33 H8           1.2290    -0.7630    -3.2790 ha         1 96D       0.149000
     34 H9           1.5240     0.0450     2.0330 hn         1 96D       0.170500
@<TRIPOS>BOND
     1     1     2 1   
     2     1    25 1   
     3     1    26 1   
     4     2    18 1   
     5     2    22 2   
     6     3     5 ar  
     7     3    14 ar  
     8     3    25 1   
     9     4    10 ar  
    10     4    14 ar  
    11     4    27 1   
    12     5    11 ar  
    13     5    28 1   
    14     6    15 1   
    15     6    16 1   
    16     6    21 1   
    17     6    29 1   
    18     7     8 ar  
    19     7     9 1   
    20     7    17 ar  
    21     8    19 ar  
    22     8    30 1   
    23     9    20 3   
    24    10    11 ar  
    25    10    31 1   
    26    11    21 1   
    27    12    13 ar  
    28    12    17 ar  
    29    12    32 1   
    30    13    18 1   
    31    13    19 ar  
    32    14    33 1   
    33    18    34 1   
    34    23    25 2   
    35    24    25 2   
@<TRIPOS>SUBSTRUCTURE
     1 96D         1 TEMP              0 ****  ****    0 ROOT
