@<TRIPOS>MOLECULE
molecule
   34    35     1     0     0
SMALL
bcc


@<TRIPOS>ATOM
      1 N3           0.0000     0.0000     0.0000 ns         1 96D      -0.662300
      2 C4           1.3480     0.0000     0.0000 c          1 96D       0.787100
      3 C8          -0.4730    -1.5350    -2.2350 ca         1 96D      -0.288500
      4 C10          0.8820    -2.8240    -3.7340 ca         1 96D      -0.118000
      5 C13         -1.2720    -2.6380    -2.0040 ca         1 96D      -0.048000
      6 C15         -1.4340    -6.1300    -3.1020 c3         1 96D       0.579700
      7 C20          6.0810    -0.3130     1.2290 ca         1 96D       0.341000
      8 C21          5.3920    -0.2000     0.0220 ca         1 96D       0.379900
      9 C24          7.5100    -0.4220     1.2310 cg         1 96D       0.142800
     10 C11          0.0850    -3.9300    -3.5050 ca         1 96D      -0.139000
     11 C12         -0.9950    -3.8390    -2.6390 ca         1 96D       0.094100
     12 C18          4.0980    -0.2130     2.3780 ca         1 96D       0.258900
     13 C23          3.4080    -0.1060     1.1680 ca         1 96D       0.460900
     14 C9           0.6030    -1.6280    -3.0990 ca         1 96D      -0.027000
     15 F16         -1.4870    -5.9090    -4.4830 f          1 96D      -0.238300
     16 F17         -0.1390    -6.5190    -2.7410 f          1 96D      -0.238300
     17 N19          5.4100    -0.3140     2.3800 nb         1 96D      -0.594000
     18 N2           2.0230     0.0000     1.1670 ns         1 96D      -0.545400
     19 N22          4.0750    -0.1000     0.0210 nb         1 96D      -0.645000
     20 N25          8.6410    -0.5090     1.2140 n1         1 96D      -0.332800
     21 O14         -1.7790    -4.9260    -2.4140 os         1 96D      -0.347900
     22 O5           1.9560     0.0020    -1.0540 o          1 96D      -0.553100
     23 O6          -2.2090    -0.0410    -1.0990 o          1 96D      -0.608800
     24 O7          -0.2490     1.0120    -2.2370 o          1 96D      -0.608800
     25 S1          -0.8280    -0.0070    -1.4330 sy         1 96D       1.426900
     26 H1          -0.5000     0.1200     0.8590 hn         1 96D       0.340500
     27 H2           1.7250    -2.8940    -4.4100 ha         1 96D       0.146000
     28 H3          -2.1140    -2.5650    -1.3270 ha         1 96D       0.159000
     29 H4          -2.1750    -6.8710    -2.8270 h3         1 96D       0.125700
     30 H5           5.9370    -0.1920    -0.9140 h4         1 96D       0.051100
     31 H6           0.3040    -4.8680    -4.0030 ha         1 96D       0.156000
     32 H7           3.6010     0.0310     3.3080 h4         1 96D       0.036100
     33 H8           1.2290    -0.7630    -3.2790 ha         1 96D       0.175000
     34 H9           1.5240     0.0450     2.0330 hn         1 96D       0.335500
@<TRIPOS>BOND
     1    24    25 2
     2    14     4 ar
     3    14     3 ar
     4     4    10 ar
     5    25     3 1
     6    25    23 2
     7    25     1 1
     8     3     5 ar
     9    10    11 ar
    10     5    11 ar
    11    11    21 1
    12    15     6 1
    13     1     2 1
    14    21     6 1
    15     6    16 1
    16     2    18 1
    17     2    22 2
    18    18    13 1
    19    13    19 ar
    20    13    12 ar
    21    19     8 ar
    22    12    17 ar
    23     8     7 ar
    24    17     7 ar
    25     7     9 1
    26     9    20 3
    27     1    26 1
    28     4    27 1
    29     5    28 1
    30     6    29 1
    31     8    30 1
    32    10    31 1
    33    12    32 1
    34    14    33 1
    35    18    34 1
@<TRIPOS>SUBSTRUCTURE
     1 96D         1 TEMP              0 ****  ****    0 ROOT
