@<TRIPOS>MOLECULE
molecule
   36    35     1     0     0
SMALL
bcc


@<TRIPOS>ATOM
      1 C10          0.0000     0.0000     0.0000 c3         1 96E      -0.083400
      2 O01          4.2440    -2.2390    -3.3230 oh         1 96E      -0.605800
      3 C02          3.4950    -2.4480    -2.1240 c3         1 96E       0.091400
      4 C03          3.9460    -1.4440    -1.0610 c3         1 96E       0.154800
      5 N04          3.5060    -0.0950    -1.4420 n3         1 96E      -0.723600
      6 C05          4.0590     0.2890    -2.7480 c3         1 96E       0.157800
      7 C06          5.5860     0.2450    -2.6890 c3         1 96E      -0.077400
      8 C07          6.1620     0.6450    -4.0490 c3         1 96E      -0.089100
      9 C08          2.0410     0.0000    -1.4420 c3         1 96E       0.155800
     10 C09          1.5300     0.0000     0.0000 c3         1 96E      -0.079400
     11 C11         -0.5110     0.0000     1.4420 c3         1 96E      -0.080400
     12 C12         -2.0410    -0.0010     1.4420 c3         1 96E       0.140400
     13 O13         -2.5180    -0.0010     2.7890 oh         1 96E      -0.611800
     14 H1          -0.3610     0.8840    -0.5110 hc         1 96E       0.039700
     15 H2          -0.3610    -0.8840    -0.5110 hc         1 96E       0.039700
     16 H3           4.2540    -3.0340    -3.8290 ho         1 96E       0.394000
     17 H4           3.6630    -3.4550    -1.7640 h1         1 96E       0.027200
     18 H5           2.4400    -2.3080    -2.3290 h1         1 96E       0.027200
     19 H6           3.5090    -1.7090    -0.1060 h1         1 96E       0.064200
     20 H7           5.0260    -1.4630    -0.9820 h1         1 96E       0.064200
     21 H9           3.7070    -0.4020    -3.5060 h1         1 96E       0.046200
     22 H10          3.7350     1.2920    -2.9970 h1         1 96E       0.046200
     23 H11          5.9380     0.9350    -1.9310 hc         1 96E       0.047200
     24 H12          5.9100    -0.7580    -2.4400 hc         1 96E       0.047200
     25 H13          5.9120     1.6780    -4.2580 hc         1 96E       0.031033
     26 H14          7.2390     0.5310    -4.0330 hc         1 96E       0.031033
     27 H15          5.7430     0.0090    -4.8200 hc         1 96E       0.031033
     28 H16          1.7380     0.9170    -1.9320 h1         1 96E       0.033700
     29 H17          1.6240    -0.8470    -1.9730 h1         1 96E       0.033700
     30 H18          1.8910     0.8850     0.5110 hc         1 96E       0.049700
     31 H19          1.8910    -0.8840     0.5110 hc         1 96E       0.049700
     32 H20         -0.1510     0.8850     1.9530 hc         1 96E       0.055200
     33 H21         -2.4020     0.8830     0.9310 h1         1 96E       0.018200
     34 H22         -3.4610     0.0020     2.7880 ho         1 96E       0.401000
     35 H8          -0.1500    -0.8840     1.9530 hc         1 96E       0.055200
     36 H23         -2.4010    -0.8860     0.9310 h1         1 96E       0.018200
@<TRIPOS>BOND
     1     5     6 1
     2     5     9 1
     3     5     4 1
     4     6     7 1
     5     7     8 1
     6    10     9 1
     7    10     1 1
     8     3     4 1
     9     3     2 1
    10    11     1 1
    11    11    12 1
    12    13    12 1
    13     1    14 1
    14     1    15 1
    15     2    16 1
    16     3    17 1
    17     3    18 1
    18     4    19 1
    19     4    20 1
    20     6    21 1
    21     6    22 1
    22     7    23 1
    23     7    24 1
    24     8    25 1
    25     8    26 1
    26     8    27 1
    27     9    28 1
    28     9    29 1
    29    10    30 1
    30    10    31 1
    31    11    32 1
    32    12    33 1
    33    13    34 1
    34    11    35 1
    35    12    36 1
@<TRIPOS>SUBSTRUCTURE
     1 96E         1 TEMP              0 ****  ****    0 ROOT
