@<TRIPOS>MOLECULE
96E
   36    35     1     0     0
SMALL
bcc


@<TRIPOS>ATOM
      1 C10          0.0000     0.0000     0.0000 c3         1 96E      -0.024400
      2 O01          4.2440    -2.2390    -3.3230 oh         1 96E      -0.584800
      3 C02          3.4950    -2.4480    -2.1240 c3         1 96E       0.174400
      4 C03          3.9460    -1.4440    -1.0610 c3         1 96E       0.123800
      5 N04          3.5060    -0.0950    -1.4420 n3         1 96E      -0.533600
      6 C05          4.0590     0.2890    -2.7480 c3         1 96E       0.130800
      7 C06          5.5860     0.2450    -2.6890 c3         1 96E      -0.036400
      8 C07          6.1620     0.6450    -4.0490 c3         1 96E       0.010900
      9 C08          2.0410     0.0000    -1.4420 c3         1 96E       0.138800
     10 C09          1.5300     0.0000     0.0000 c3         1 96E      -0.033400
     11 C11         -0.5110     0.0000     1.4420 c3         1 96E      -0.038400
     12 C12         -2.0410    -0.0010     1.4420 c3         1 96E       0.225400
     13 O13         -2.5180    -0.0010     2.7890 oh         1 96E      -0.593800
     14 H1          -0.3610     0.8840    -0.5110 hc         1 96E       0.011700
     15 H2          -0.3610    -0.8840    -0.5110 hc         1 96E       0.011700
     16 H3           4.2540    -3.0340    -3.8290 ho         1 96E       0.384000
     17 H4           3.6630    -3.4550    -1.7640 h1         1 96E      -0.003300
     18 H5           2.4400    -2.3080    -2.3290 h1         1 96E      -0.003300
     19 H6           3.5090    -1.7090    -0.1060 h1         1 96E       0.037700
     20 H7           5.0260    -1.4630    -0.9820 h1         1 96E       0.037700
     21 H9           3.7070    -0.4020    -3.5060 h1         1 96E       0.025700
     22 H10          3.7350     1.2920    -2.9970 h1         1 96E       0.025700
     23 H11          5.9380     0.9350    -1.9310 hc         1 96E       0.022700
     24 H12          5.9100    -0.7580    -2.4400 hc         1 96E       0.022700
     25 H13          5.9120     1.6780    -4.2580 hc         1 96E      -0.001633
     26 H14          7.2390     0.5310    -4.0330 hc         1 96E      -0.001633
     27 H15          5.7430     0.0090    -4.8200 hc         1 96E      -0.001633
     28 H16          1.7380     0.9170    -1.9320 h1         1 96E       0.013200
     29 H17          1.6240    -0.8470    -1.9730 h1         1 96E       0.013200
     30 H18          1.8910     0.8850     0.5110 hc         1 96E       0.023700
     31 H19          1.8910    -0.8840     0.5110 hc         1 96E       0.023700
     32 H20         -0.1510     0.8850     1.9530 hc         1 96E       0.024200
     33 H21         -2.4020     0.8830     0.9310 h1         1 96E      -0.017300
     34 H22         -3.4610     0.0020     2.7880 ho         1 96E       0.388000
     35 H8          -0.1500    -0.8840     1.9530 hc         1 96E       0.024200
     36 H23         -2.4010    -0.8860     0.9310 h1         1 96E      -0.017300
@<TRIPOS>BOND
     1     1    10 1   
     2     1    11 1   
     3     1    14 1   
     4     1    15 1   
     5     2     3 1   
     6     2    16 1   
     7     3     4 1   
     8     3    17 1   
     9     3    18 1   
    10     4     5 1   
    11     4    19 1   
    12     4    20 1   
    13     5     6 1   
    14     5     9 1   
    15     6     7 1   
    16     6    21 1   
    17     6    22 1   
    18     7     8 1   
    19     7    23 1   
    20     7    24 1   
    21     8    25 1   
    22     8    26 1   
    23     8    27 1   
    24     9    10 1   
    25     9    28 1   
    26     9    29 1   
    27    10    30 1   
    28    10    31 1   
    29    11    12 1   
    30    11    32 1   
    31    11    35 1   
    32    12    13 1   
    33    12    33 1   
    34    12    36 1   
    35    13    34 1   
@<TRIPOS>SUBSTRUCTURE
     1 96E         1 TEMP              0 ****  ****    0 ROOT
