@<TRIPOS>MOLECULE
molecule
   49    51     1     0     0
SMALL
bcc


@<TRIPOS>ATOM
      1 CBA          0.0000     0.0000     0.0000 c3         1 96F      -0.096100
      2 CAZ          1.5300     0.0000     0.0000 c3         1 96F      -0.107400
      3 CAX          2.0400     0.0000     1.4430 c3         1 96F       0.057800
      4 CAY          1.4290     1.1820     2.1990 c3         1 96F      -0.074100
      5 OBB          1.6620    -1.2210     2.0810 oh         1 96F      -0.599800
      6 CAW          3.5410     0.1240     1.4440 c          1 96F       0.537100
      7 OBC          4.0990     0.7210     0.5550 o          1 96F      -0.475100
      8 CAV          4.3480    -0.4960     2.5560 c3         1 96F      -0.268400
      9 CAT          5.8120    -0.2300     2.3240 c          1 96F       0.575700
     10 OAU          6.1670     0.4020     1.3500 o          1 96F      -0.469100
     11 CAM          6.8120    -0.7360     3.2750 ca         1 96F      -0.177600
     12 CAL          7.1420     0.0140     4.4060 ca         1 96F      -0.030300
     13 CAS          6.4710     1.3430     4.6460 c3         1 96F      -0.060800
     14 CAK          8.0800    -0.4540     5.3080 ca         1 96F      -0.095000
     15 CAH          8.7050    -1.6790     5.0960 ca         1 96F      -0.107600
     16 CAG          9.7090    -2.1850     6.0610 c          1 96F       0.589300
     17 OAO         10.1810    -1.4460     6.9020 o          1 96F      -0.507100
     18 CAA         10.1290    -3.6000     5.9870 ca         1 96F      -0.102600
     19 CAF         10.8370    -4.1840     7.0320 ca         1 96F      -0.115000
     20 CAE         11.2250    -5.5120     6.9490 ca         1 96F      -0.080000
     21 CAD         10.9150    -6.2650     5.8350 ca         1 96F      -0.204000
     22 CAC         10.2050    -5.7010     4.7780 ca         1 96F       0.179100
     23 OAR          9.9010    -6.4460     3.6860 oh         1 96F      -0.464100
     24 CAB          9.8070    -4.3640     4.8490 ca         1 96F      -0.162600
     25 CAJ          9.0520    -3.7450     3.7420 c          1 96F       0.589300
     26 OAP          8.9820    -4.2980     2.6620 o          1 96F      -0.482100
     27 CAI          8.3850    -2.4470     3.9600 ca         1 96F      -0.163600
     28 CAN          7.4320    -1.9790     3.0510 ca         1 96F       0.186100
     29 OAQ          7.1130    -2.7130     1.9610 oh         1 96F      -0.506100
     30 HBB         -0.3610    -0.5920     0.8320 hc         1 96F       0.040367
     31 HBC         -0.3610    -0.4250    -0.9290 hc         1 96F       0.040367
     32 HBA         -0.3610     1.0170     0.0960 hc         1 96F       0.040367
     33 HA2          1.8910     0.8840    -0.5110 hc         1 96F       0.060700
     34 HA1          1.8910    -0.8840    -0.5110 hc         1 96F       0.060700
     35 HAY          1.9750     1.3410     3.1210 hc         1 96F       0.050367
     36 HAZ          1.4890     2.0730     1.5860 hc         1 96F       0.050367
     37 HA0          0.3920     0.9680     2.4250 hc         1 96F       0.050367
     38 HBE          1.7190    -1.9300     1.4620 ho         1 96F       0.410000
     39 H1           4.0480    -0.0650     3.5030 hc         1 96F       0.098700
     40 HAV          4.1740    -1.5650     2.5740 hc         1 96F       0.098700
     41 HAS          5.4700     1.1790     5.0260 hc         1 96F       0.055700
     42 HAT          6.4190     1.8950     3.7160 hc         1 96F       0.055700
     43 HAU          7.0430     1.9100     5.3710 hc         1 96F       0.055700
     44 HAK          8.3290     0.1350     6.1820 ha         1 96F       0.160000
     45 HAF         11.0860    -3.6000     7.9100 ha         1 96F       0.157000
     46 HAE         11.7770    -5.9620     7.7650 ha         1 96F       0.141000
     47 HAD         11.2240    -7.3020     5.7830 ha         1 96F       0.140000
     48 HAR         10.5140    -7.1590     3.6120 ho         1 96F       0.424000
     49 HAQ          7.6780    -2.4750     1.2450 ho         1 96F       0.446000
@<TRIPOS>BOND
     1     1     2 1
     2     2     3 1
     3    23    22 1
     4    26    25 2
     5    22    21 ar
     6    22    24 ar
     7    21    20 ar
     8     3     5 1
     9     3     6 1
    10     3     4 1
    11     7     6 2
    12     6     8 1
    13    25    24 1
    14    25    27 1
    15    24    18 ar
    16    20    19 ar
    17    29    28 1
    18     8     9 1
    19    28    27 ar
    20    28    11 ar
    21    27    15 ar
    22    18    19 ar
    23    18    16 1
    24    10     9 2
    25     9    11 1
    26    11    12 ar
    27    15    16 1
    28    15    14 ar
    29    16    17 2
    30    12    14 ar
    31    12    13 1
    32     1    30 1
    33     1    31 1
    34     1    32 1
    35     2    33 1
    36     2    34 1
    37     4    35 1
    38     4    36 1
    39     4    37 1
    40     5    38 1
    41     8    39 1
    42     8    40 1
    43    13    41 1
    44    13    42 1
    45    13    43 1
    46    14    44 1
    47    19    45 1
    48    20    46 1
    49    21    47 1
    50    23    48 1
    51    29    49 1
@<TRIPOS>SUBSTRUCTURE
     1 96F         1 TEMP              0 ****  ****    0 ROOT
