@<TRIPOS>MOLECULE
96G
   38    40     1     0     0
SMALL
bcc


@<TRIPOS>ATOM
      1 C7           0.0000     0.0000     0.0000 c          1 96G       0.604100
      2 C9           0.9680     3.4730    -3.5750 cc         1 96G       0.134900
      3 C3          -2.0640     0.0010     1.1680 cc         1 96G       0.415300
      4 C2           1.8210     1.5260    -2.2410 cc         1 96G      -0.066600
      5 C11         -4.4940    -0.0070     0.7680 cc         1 96G      -0.057300
      6 C14         -4.1140     0.0020     2.0470 cd         1 96G       0.397200
      7 C13          2.0610     3.7270    -2.8290 cd         1 96G      -0.193000
      8 C12          2.5230     2.6520    -2.0980 cd         1 96G       0.016000
      9 C17          0.2850     4.4490    -4.4490 ca         1 96G      -0.074000
     10 C19         -0.8400     4.0650    -5.1820 ca         1 96G      -0.037000
     11 C20          0.7580     5.7590    -4.5380 ca         1 96G      -0.037000
     12 C22         -0.9980     6.2810    -6.0860 ca         1 96G       0.166100
     13 C23          0.1170     6.6680    -5.3540 ca         1 96G      -0.177000
     14 C24         -1.4750     4.9800    -5.9950 ca         1 96G      -0.177000
     15 C26         -1.0830     8.4990    -6.9350 c3         1 96G       0.244700
     16 N10         -2.8060     0.0010     2.2310 nd         1 96G      -0.630000
     17 N4           1.3470     0.0000     0.0000 ns         1 96G      -0.303300
     18 N8          -0.6730     0.0000     1.1680 ns         1 96G      -0.064400
     19 O15          1.5930    -1.0220    -2.2340 o          1 96G      -0.553800
     20 O16          3.5560     0.0330    -1.1010 o          1 96G      -0.553800
     21 O18         -0.6080     0.0060    -1.0530 o          1 96G      -0.623100
     22 O25         -1.6270     7.1790    -6.8880 os         1 96G      -0.304900
     23 S1           2.1750    -0.0010    -1.4350 sy         1 96G       1.077900
     24 S5          -3.0440    -0.0050    -0.2320 ss         1 96G      -0.172300
     25 S6           0.4870     1.7950    -3.3560 ss         1 96G      -0.133800
     26 Br21        -6.2770    -0.0140     0.1390 br         1 96G      -0.026100
     27 H1          -4.8210     0.0030     2.8680 h4         1 96G       0.007100
     28 H2           2.5380     4.6990    -2.8040 ha         1 96G       0.130000
     29 H3           3.3930     2.7170    -1.4550 ha         1 96G       0.125000
     30 H4          -1.2130     3.0500    -5.1120 ha         1 96G       0.113500
     31 H5           1.6280     6.0610    -3.9680 ha         1 96G       0.113500
     32 H6           0.4850     7.6840    -5.4260 ha         1 96G       0.122000
     33 H7          -2.3470     4.6830    -6.5660 ha         1 96G       0.122000
     34 H8          -1.1050     8.9340    -5.9420 h1         1 96G      -0.001300
     35 H9          -0.0600     8.4560    -7.2880 h1         1 96G      -0.001300
     36 H10         -1.6730     9.1090    -7.6080 h1         1 96G      -0.001300
     37 H11          1.8470    -0.0330     0.8660 hn         1 96G       0.226500
     38 H12         -0.1730    -0.0340     2.0340 hn         1 96G       0.174500
@<TRIPOS>BOND
     1     1    17 1   
     2     1    18 1   
     3     1    21 2   
     4     2     7 2   
     5     2     9 1   
     6     2    25 1   
     7     3    16 2   
     8     3    18 1   
     9     3    24 1   
    10     4     8 2   
    11     4    23 1   
    12     4    25 1   
    13     5     6 2   
    14     5    24 1   
    15     5    26 1   
    16     6    16 1   
    17     6    27 1   
    18     7     8 1   
    19     7    28 1   
    20     8    29 1   
    21     9    10 ar  
    22     9    11 ar  
    23    10    14 ar  
    24    10    30 1   
    25    11    13 ar  
    26    11    31 1   
    27    12    13 ar  
    28    12    14 ar  
    29    12    22 1   
    30    13    32 1   
    31    14    33 1   
    32    15    22 1   
    33    15    34 1   
    34    15    35 1   
    35    15    36 1   
    36    17    23 1   
    37    17    37 1   
    38    18    38 1   
    39    19    23 2   
    40    20    23 2   
@<TRIPOS>SUBSTRUCTURE
     1 96G         1 TEMP              0 ****  ****    0 ROOT
