@<TRIPOS>MOLECULE
96J
   33    34     1     0     0
SMALL
bcc


@<TRIPOS>ATOM
      1 C6           0.0000     0.0000     0.0000 c          1 96J       0.609100
      2 C9          -4.2360     0.0120     1.9460 cc         1 96J       0.412600
      3 C10          1.8190     1.5340    -2.2350 ca         1 96J      -0.160500
      4 C3          -2.8920     0.0060     2.2490 cc         1 96J      -0.209200
      5 C2          -2.0700     0.0050     1.1670 cd         1 96J       0.022500
      6 C14          2.6190     2.6390    -2.0050 ca         1 96J      -0.002000
      7 C16          2.3440     3.8360    -2.6380 ca         1 96J      -0.127300
      8 C18          0.7440     1.6280    -3.0980 ca         1 96J       0.022000
      9 C19          0.4680     2.8260    -3.7320 ca         1 96J      -0.130000
     10 C20          1.2680     3.9300    -3.5010 ca         1 96J      -0.042000
     11 C21          3.2150     5.0400    -2.3870 c3         1 96J       0.069200
     12 N4           1.3470     0.0000     0.0000 ns         1 96J      -0.306300
     13 N5          -0.6740     0.0000     1.1680 ns         1 96J       0.033900
     14 N8          -4.5570     0.0150     0.6850 nd         1 96J      -0.417100
     15 O13         -0.6080     0.0030    -1.0530 o          1 96J      -0.634100
     16 S1           2.1750     0.0070    -1.4340 sy         1 96J       1.050900
     17 S7          -3.1110     0.0110    -0.2020 ss         1 96J       0.080200
     18 Br15        -2.2450     0.0020     4.0260 br         1 96J      -0.085100
     19 H1           3.4620     2.5650    -1.3280 ha         1 96J       0.121000
     20 H2          -6.2710     0.0270     2.5720 hc         1 96J       0.021700
     21 H3          -5.1660     0.9030     3.6410 hc         1 96J       0.021700
     22 H4          -5.1790    -0.8660     3.6410 hc         1 96J       0.021700
     23 H5           0.1170     0.7630    -3.2790 ha         1 96J       0.145000
     24 H6          -0.3750     2.9000    -4.4080 ha         1 96J       0.112000
     25 H7           1.0520     4.8690    -3.9980 ha         1 96J       0.105000
     26 H8           4.1580     4.9180    -2.9060 hc         1 96J       0.008367
     27 H9           3.3970     5.1380    -1.3240 hc         1 96J       0.008367
     28 H10          2.7150     5.9300    -2.7510 hc         1 96J       0.008367
     29 H11          1.8470    -0.0340     0.8660 hn         1 96J       0.225500
     30 H12         -0.1740    -0.0340     2.0340 hn         1 96J       0.173500
     31 C17         -5.2870     0.0200     3.0260 c3         1 96J      -0.034400
     32 O11          1.5950    -1.0130    -2.2370 o          1 96J      -0.563300
     33 O12          3.5570     0.0410    -1.1000 o          1 96J      -0.563300
@<TRIPOS>BOND
     1     1    12 1   
     2     1    13 1   
     3     1    15 2   
     4     2     4 1   
     5     2    14 2   
     6     2    31 1   
     7     3     6 ar  
     8     3     8 ar  
     9     3    16 1   
    10     4     5 2   
    11     4    18 1   
    12     5    13 1   
    13     5    17 1   
    14     6     7 ar  
    15     6    19 1   
    16     7    10 ar  
    17     7    11 1   
    18     8     9 ar  
    19     8    23 1   
    20     9    10 ar  
    21     9    24 1   
    22    10    25 1   
    23    11    26 1   
    24    11    27 1   
    25    11    28 1   
    26    12    16 1   
    27    12    29 1   
    28    13    30 1   
    29    14    17 1   
    30    16    32 2   
    31    16    33 2   
    32    20    31 1   
    33    21    31 1   
    34    22    31 1   
@<TRIPOS>SUBSTRUCTURE
     1 96J         1 TEMP              0 ****  ****    0 ROOT
