@<TRIPOS>MOLECULE
96K
   41    40     1     0     0
SMALL
bcc


@<TRIPOS>ATOM
      1 N1           0.0000     0.0000     0.0000 n3         1 96K      -0.538600
      2 C2           1.4680     0.0000     0.0000 c3         1 96K       0.142800
      3 C3           1.9790     0.0000     1.4420 c3         1 96K      -0.033400
      4 C4           3.5060     0.1030     1.4420 c3         1 96K      -0.027400
      5 C5           4.0170     0.1040     2.8840 c3         1 96K      -0.024400
      6 C6           5.5430     0.2060     2.8850 c3         1 96K      -0.039400
      7 C7           6.0540     0.2060     4.3270 c3         1 96K       0.225400
      8 C9          -0.5270     1.3330     0.3240 c3         1 96K       0.141800
      9 C10         -2.0360     1.2420     0.5600 c3         1 96K      -0.035900
     10 C12         -0.5270    -0.4770    -1.2850 c3         1 96K       0.141800
     11 O8           7.4800     0.3020     4.3270 oh         1 96K      -0.594800
     12 C13         -0.3000    -1.9840    -1.4030 c3         1 96K      -0.035900
     13 C14         -0.9570    -2.5020    -2.6840 c3         1 96K       0.007900
     14 C11         -2.5840     2.6300     0.8970 c3         1 96K       0.007900
     15 H1           1.8290    -0.8840    -0.5110 h1         1 96K       0.013200
     16 H2           1.5600     0.8460     1.9730 hc         1 96K       0.022200
     17 H3           3.8060     1.0210     0.9520 hc         1 96K       0.014700
     18 H4           3.5980     0.9500     3.4150 hc         1 96K       0.014200
     19 H5           5.9610    -0.6400     2.3530 hc         1 96K       0.023700
     20 H6           5.8430     1.1250     2.3950 hc         1 96K       0.023700
     21 H7           5.6360     1.0520     4.8580 h1         1 96K      -0.016800
     22 H8           5.7540    -0.7120     4.8160 h1         1 96K      -0.016800
     23 H9          -0.0430     1.7050     1.2180 h1         1 96K       0.012700
     24 H10         -2.2320     0.5670     1.3840 hc         1 96K       0.020700
     25 H11         -1.5890    -0.2670    -1.3400 h1         1 96K       0.012700
     26 H12          7.7950     0.2930     5.2160 ho         1 96K       0.388000
     27 H13         -0.7360    -2.4830    -0.5460 hc         1 96K       0.020700
     28 H14         -0.5720    -1.9530    -3.5350 hc         1 96K       0.000033
     29 H15         -2.0300    -2.3650    -2.6210 hc         1 96K       0.000033
     30 H16         -0.7340    -3.5560    -2.8030 hc         1 96K       0.000033
     31 H17         -2.1400     2.9790     1.8220 hc         1 96K       0.000033
     32 H18         -3.6600     2.5750     1.0120 hc         1 96K       0.000033
     33 H19         -2.3400     3.3180     0.0970 hc         1 96K       0.000033
     34 H20          1.8290     0.8840    -0.5110 h1         1 96K       0.013200
     35 H21          1.6790    -0.9190     1.9310 hc         1 96K       0.022200
     36 H22          3.9250    -0.7430     0.9110 hc         1 96K       0.014700
     37 H23          3.7160    -0.8140     3.3740 hc         1 96K       0.014200
     38 H24         -0.3310     2.0080    -0.5000 h1         1 96K       0.012700
     39 H25         -2.5200     0.8700    -0.3340 hc         1 96K       0.020700
     40 H26         -0.0170     0.0300    -2.0950 h1         1 96K       0.012700
     41 H27          0.7640    -2.1870    -1.4350 hc         1 96K       0.020700
@<TRIPOS>BOND
     1     1     2 1   
     2     1     8 1   
     3     1    10 1   
     4     2     3 1   
     5     2    15 1   
     6     2    34 1   
     7     3     4 1   
     8     3    16 1   
     9     3    35 1   
    10     4     5 1   
    11     4    17 1   
    12     4    36 1   
    13     5     6 1   
    14     5    18 1   
    15     5    37 1   
    16     6     7 1   
    17     6    19 1   
    18     6    20 1   
    19     7    11 1   
    20     7    21 1   
    21     7    22 1   
    22     8     9 1   
    23     8    23 1   
    24     8    38 1   
    25     9    14 1   
    26     9    24 1   
    27     9    39 1   
    28    10    12 1   
    29    10    25 1   
    30    10    40 1   
    31    11    26 1   
    32    12    13 1   
    33    12    27 1   
    34    12    41 1   
    35    13    28 1   
    36    13    29 1   
    37    13    30 1   
    38    14    31 1   
    39    14    32 1   
    40    14    33 1   
@<TRIPOS>SUBSTRUCTURE
     1 96K         1 TEMP              0 ****  ****    0 ROOT
