@<TRIPOS>MOLECULE
molecule
   62    65     1     0     0
SMALL
bcc


@<TRIPOS>ATOM
      1 C01          0.0000     0.0000     0.0000 c3         1 96M      -0.093600
      2 C02          1.5300     0.0000     0.0000 c3         1 96M       0.157300
      3 N03          2.0210     0.0000     1.3840 n3         1 96M      -0.720600
      4 C04          1.6710    -1.2530     2.0660 c3         1 96M       0.157300
      5 C05          1.8240    -1.0710     3.5770 c3         1 96M      -0.093600
      6 C06          3.4690     0.2380     1.4290 c3         1 96M       0.159800
      7 C07          3.7510     1.7220     1.1830 c3         1 96M       0.142400
      8 O08          3.1880     2.4950     2.2450 os         1 96M      -0.310900
      9 C09          3.2760     3.8470     2.1370 ca         1 96M       0.134100
     10 C10          2.7500     4.6590     3.1310 ca         1 96M      -0.178000
     11 C11          2.8390     6.0330     3.0230 ca         1 96M      -0.101500
     12 C12          3.4540     6.6020     1.9150 ca         1 96M       0.107600
     13 N13          3.5450     7.9950     1.8040 nu         1 96M      -0.739300
     14 C14          3.6970     8.7700     2.9370 ca         1 96M       0.980900
     15 N15          3.6750    10.0880     2.8150 nb         1 96M      -0.847000
     16 C16          3.8180    10.8670     3.8820 ca         1 96M       0.645200
     17 C17          3.9930    10.2610     5.1460 ca         1 96M      -0.429400
     18 C18          4.0090     8.8600     5.2210 ca         1 96M       0.550200
     19 N19          3.8540     8.1660     4.1100 nb         1 96M      -0.808000
     20 C20          4.1480    11.0590     6.3010 cc         1 96M       0.008800
     21 C21          4.1260    12.4220     6.1760 cd         1 96M      -0.162400
     22 C22          3.9420    13.0180     4.8510 c          1 96M       0.715700
     23 O23          3.9220    14.2300     4.7290 o          1 96M      -0.618500
     24 N24          3.7970    12.2340     3.7650 n          1 96M      -0.407300
     25 C25          3.6150    12.8460     2.4470 c3         1 96M       0.087300
     26 C26          4.2860    13.2860     7.3690 ca         1 96M      -0.014800
     27 C27          3.1660    13.6860     8.0990 ca         1 96M       0.055400
     28 Cl28         1.5810    13.1720     7.6130 cl         1 96M      -0.092400
     29 C29          3.3220    14.4900     9.2100 ca         1 96M      -0.123000
     30 C30          4.5840    14.9000     9.6000 ca         1 96M      -0.108000
     31 C31          5.6990    14.5080     8.8800 ca         1 96M      -0.123000
     32 C32          5.5570    13.6990     7.7700 ca         1 96M       0.055400
     33 Cl33         6.9570    13.2020     6.8710 cl         1 96M      -0.092400
     34 C34          3.9800     5.7900     0.9190 ca         1 96M      -0.101500
     35 C35          3.8960     4.4150     1.0330 ca         1 96M      -0.178000
     36 H011        -0.3610     0.4590     0.9120 hc         1 96M       0.040700
     37 H013        -0.3610    -1.0200    -0.0590 hc         1 96M       0.040700
     38 H012        -0.3610     0.5610    -0.8540 hc         1 96M       0.040700
     39 H021         1.8910     0.8840    -0.5110 h1         1 96M       0.031200
     40 H022         1.8910    -0.8840    -0.5110 h1         1 96M       0.031200
     41 H042         0.6460    -1.5160     1.8360 h1         1 96M       0.031200
     42 H041         2.3310    -2.0440     1.7300 h1         1 96M       0.031200
     43 H051         2.8530    -1.2540     3.8610 hc         1 96M       0.040700
     44 H052         1.1770    -1.7710     4.0920 hc         1 96M       0.040700
     45 H053         1.5490    -0.0590     3.8490 hc         1 96M       0.040700
     46 H062         3.8520    -0.0460     2.4020 h1         1 96M       0.047700
     47 H061         3.9570    -0.3540     0.6630 h1         1 96M       0.047700
     48 H072         3.3070     2.0230     0.2420 h1         1 96M       0.035200
     49 H071         4.8210     1.8850     1.1460 h1         1 96M       0.035200
     50 H101         2.2710     4.2140     3.9950 ha         1 96M       0.142000
     51 H111         2.4280     6.6650     3.8000 ha         1 96M       0.145500
     52 H131         3.4720     8.4310     0.9060 hn         1 96M       0.467800
     53 H181         4.1370     8.3590     6.1730 h4         1 96M       0.038100
     54 H201         4.2820    10.5980     7.2720 ha         1 96M       0.145000
     55 H252         3.6240    13.9250     2.5460 h1         1 96M       0.062033
     56 H253         2.6660    12.5300     2.0300 h1         1 96M       0.062033
     57 H251         4.4180    12.5370     1.7900 h1         1 96M       0.062033
     58 H291         2.4540    14.8010     9.7780 ha         1 96M       0.148000
     59 H301         4.7010    15.5330    10.4710 ha         1 96M       0.142000
     60 H311         6.6850    14.8310     9.1910 ha         1 96M       0.148000
     61 H341         4.4620     6.2340     0.0570 ha         1 96M       0.145500
     62 H351         4.3060     3.7820     0.2560 ha         1 96M       0.142000
@<TRIPOS>BOND
     1     6     3 1
     2     6     7 1
     3     4     3 1
     4     4     5 1
     5     3     2 1
     6     7     8 1
     7     2     1 1
     8     8     9 1
     9    25    24 1
    10    35     9 ar
    11    35    34 ar
    12    23    22 2
    13     9    10 ar
    14    22    24 1
    15    22    21 1
    16    24    16 1
    17    34    12 ar
    18    10    11 ar
    19    28    27 1
    20    29    27 ar
    21    29    30 ar
    22    27    26 ar
    23    30    31 ar
    24    26    21 1
    25    26    32 ar
    26    31    32 ar
    27    21    20 2
    28    16    15 ar
    29    16    17 ar
    30    32    33 1
    31    12    11 ar
    32    12    13 1
    33    15    14 ar
    34    20    17 1
    35    13    14 1
    36    17    18 ar
    37    14    19 ar
    38    19    18 ar
    39     1    36 1
    40     1    37 1
    41     1    38 1
    42     2    39 1
    43     2    40 1
    44     4    41 1
    45     4    42 1
    46     5    43 1
    47     5    44 1
    48     5    45 1
    49     6    46 1
    50     6    47 1
    51     7    48 1
    52     7    49 1
    53    10    50 1
    54    11    51 1
    55    13    52 1
    56    18    53 1
    57    20    54 1
    58    25    55 1
    59    25    56 1
    60    25    57 1
    61    29    58 1
    62    30    59 1
    63    31    60 1
    64    34    61 1
    65    35    62 1
@<TRIPOS>SUBSTRUCTURE
     1 96M         1 TEMP              0 ****  ****    0 ROOT
