@<TRIPOS>MOLECULE
96M
   62    65     1     0     0
SMALL
bcc


@<TRIPOS>ATOM
      1 C01          0.0000     0.0000     0.0000 c3         1 96M      -0.001600
      2 C02          1.5300     0.0000     0.0000 c3         1 96M       0.144300
      3 N03          2.0210     0.0000     1.3840 n3         1 96M      -0.530600
      4 C04          1.6710    -1.2530     2.0660 c3         1 96M       0.144300
      5 C05          1.8240    -1.0710     3.5770 c3         1 96M      -0.001600
      6 C06          3.4690     0.2380     1.4290 c3         1 96M       0.139800
      7 C07          3.7510     1.7220     1.1830 c3         1 96M       0.199400
      8 O08          3.1880     2.4950     2.2450 os         1 96M      -0.286900
      9 C09          3.2760     3.8470     2.1370 ca         1 96M       0.147100
     10 C10          2.7500     4.6590     3.1310 ca         1 96M      -0.163000
     11 C11          2.8390     6.0330     3.0230 ca         1 96M      -0.069500
     12 C12          3.4540     6.6020     1.9150 ca         1 96M      -0.062400
     13 N13          3.5450     7.9950     1.8040 nu         1 96M      -0.257300
     14 C14          3.6970     8.7700     2.9370 ca         1 96M       0.740900
     15 N15          3.6750    10.0880     2.8150 nb         1 96M      -0.747000
     16 C16          3.8180    10.8670     3.8820 ca         1 96M       0.458200
     17 C17          3.9930    10.2610     5.1460 ca         1 96M      -0.437400
     18 C18          4.0090     8.8600     5.2210 ca         1 96M       0.551200
     19 N19          3.8540     8.1660     4.1100 nb         1 96M      -0.711000
     20 C20          4.1480    11.0590     6.3010 cc         1 96M       0.042800
     21 C21          4.1260    12.4220     6.1760 cd         1 96M      -0.176400
     22 C22          3.9420    13.0180     4.8510 c          1 96M       0.623700
     23 O23          3.9220    14.2300     4.7290 o          1 96M      -0.665500
     24 N24          3.7970    12.2340     3.7650 n          1 96M       0.011700
     25 C25          3.6150    12.8460     2.4470 c3         1 96M       0.042300
     26 C26          4.2860    13.2860     7.3690 ca         1 96M      -0.004800
     27 C27          3.1660    13.6860     8.0990 ca         1 96M      -0.010600
     28 Cl28         1.5810    13.1720     7.6130 cl         1 96M      -0.017400
     29 C29          3.3220    14.4900     9.2100 ca         1 96M      -0.100000
     30 C30          4.5840    14.9000     9.6000 ca         1 96M      -0.081000
     31 C31          5.6990    14.5080     8.8800 ca         1 96M      -0.100000
     32 C32          5.5570    13.6990     7.7700 ca         1 96M      -0.010600
     33 Cl33         6.9570    13.2020     6.8710 cl         1 96M      -0.017400
     34 C34          3.9800     5.7900     0.9190 ca         1 96M      -0.069500
     35 C35          3.8960     4.4150     1.0330 ca         1 96M      -0.163000
     36 H011        -0.3610     0.4590     0.9120 hc         1 96M       0.008200
     37 H013        -0.3610    -1.0200    -0.0590 hc         1 96M       0.008200
     38 H012        -0.3610     0.5610    -0.8540 hc         1 96M       0.008200
     39 H021         1.8910     0.8840    -0.5110 h1         1 96M       0.008200
     40 H022         1.8910    -0.8840    -0.5110 h1         1 96M       0.008200
     41 H042         0.6460    -1.5160     1.8360 h1         1 96M       0.008200
     42 H041         2.3310    -2.0440     1.7300 h1         1 96M       0.008200
     43 H051         2.8530    -1.2540     3.8610 hc         1 96M       0.008200
     44 H052         1.1770    -1.7710     4.0920 hc         1 96M       0.008200
     45 H053         1.5490    -0.0590     3.8490 hc         1 96M       0.008200
     46 H062         3.8520    -0.0460     2.4020 h1         1 96M       0.021700
     47 H061         3.9570    -0.3540     0.6630 h1         1 96M       0.021700
     48 H072         3.3070     2.0230     0.2420 h1         1 96M       0.003200
     49 H071         4.8210     1.8850     1.1460 h1         1 96M       0.003200
     50 H101         2.2710     4.2140     3.9950 ha         1 96M       0.119000
     51 H111         2.4280     6.6650     3.8000 ha         1 96M       0.119000
     52 H131         3.4720     8.4310     0.9060 hn         1 96M       0.291800
     53 H181         4.1370     8.3590     6.1730 h4         1 96M      -0.012900
     54 H201         4.2820    10.5980     7.2720 ha         1 96M       0.115000
     55 H252         3.6240    13.9250     2.5460 h1         1 96M       0.031700
     56 H253         2.6660    12.5300     2.0300 h1         1 96M       0.031700
     57 H251         4.4180    12.5370     1.7900 h1         1 96M       0.031700
     58 H291         2.4540    14.8010     9.7780 ha         1 96M       0.116000
     59 H301         4.7010    15.5330    10.4710 ha         1 96M       0.107000
     60 H311         6.6850    14.8310     9.1910 ha         1 96M       0.116000
     61 H341         4.4620     6.2340     0.0570 ha         1 96M       0.119000
     62 H351         4.3060     3.7820     0.2560 ha         1 96M       0.119000
@<TRIPOS>BOND
     1     1     2 1   
     2     1    36 1   
     3     1    37 1   
     4     1    38 1   
     5     2     3 1   
     6     2    39 1   
     7     2    40 1   
     8     3     4 1   
     9     3     6 1   
    10     4     5 1   
    11     4    41 1   
    12     4    42 1   
    13     5    43 1   
    14     5    44 1   
    15     5    45 1   
    16     6     7 1   
    17     6    46 1   
    18     6    47 1   
    19     7     8 1   
    20     7    48 1   
    21     7    49 1   
    22     8     9 1   
    23     9    10 ar  
    24     9    35 ar  
    25    10    11 ar  
    26    10    50 1   
    27    11    12 ar  
    28    11    51 1   
    29    12    13 1   
    30    12    34 ar  
    31    13    14 1   
    32    13    52 1   
    33    14    15 ar  
    34    14    19 ar  
    35    15    16 ar  
    36    16    17 ar  
    37    16    24 1   
    38    17    18 ar  
    39    17    20 1   
    40    18    19 ar  
    41    18    53 1   
    42    20    21 2   
    43    20    54 1   
    44    21    22 1   
    45    21    26 1   
    46    22    23 2   
    47    22    24 1   
    48    24    25 1   
    49    25    55 1   
    50    25    56 1   
    51    25    57 1   
    52    26    27 ar  
    53    26    32 ar  
    54    27    28 1   
    55    27    29 ar  
    56    29    30 ar  
    57    29    58 1   
    58    30    31 ar  
    59    30    59 1   
    60    31    32 ar  
    61    31    60 1   
    62    32    33 1   
    63    34    35 ar  
    64    34    61 1   
    65    35    62 1   
@<TRIPOS>SUBSTRUCTURE
     1 96M         1 TEMP              0 ****  ****    0 ROOT
