@<TRIPOS>MOLECULE
molecule
   47    49     1     0     0
SMALL
bcc


@<TRIPOS>ATOM
      1 C2           0.0000     0.0000     0.0000 cc         1 96N      -0.208900
      2 C3          -3.0580     0.0030    -2.2430 c3         1 96N       0.163300
      3 C1          -0.8590     0.0020    -1.1910 c          1 96N       0.704700
      4 C4           0.6260     0.0070     2.1290 cc         1 96N      -0.053600
      5 C5           1.7750     0.0000     1.3550 cd         1 96N      -0.262600
      6 C13         -5.2180    -1.1570    -1.8240 ca         1 96N      -0.105000
      7 C14         -6.5540    -1.1770    -1.4300 ca         1 96N      -0.133000
      8 C15         -7.1850    -0.0400    -1.0290 ca         1 96N      -0.105000
      9 C16         -6.4800     1.1760    -1.0110 ca         1 96N      -0.040000
     10 C17         -5.1200     1.1970    -1.4110 ca         1 96N      -0.027000
     11 C6           1.3620     0.0000     0.0000 cd         1 96N      -0.023300
     12 C7           2.2590    -0.0000    -1.2110 c3         1 96N      -0.020100
     13 C8           2.5620     1.4430    -1.6210 c3         1 96N      -0.082100
     14 C9           3.1570    -0.0010     1.8440 c          1 96N       0.611700
     15 C10          3.9000    -1.3020     2.0030 c3         1 96N      -0.189100
     16 C18         -7.0970     2.3700    -0.6030 ca         1 96N      -0.115000
     17 C19         -6.3830     3.5290    -0.5990 ca         1 96N      -0.125000
     18 C20         -5.0470     3.5500    -0.9920 ca         1 96N      -0.120000
     19 C21         -4.4160     2.4120    -1.3920 ca         1 96N      -0.124000
     20 N3          -0.4350     0.0050     1.3080 na         1 96N      -0.139100
     21 C12          0.5760     0.0100     3.6340 c3         1 96N      -0.030800
     22 N13         -2.2000     0.0010    -1.0550 ns         1 96N      -0.589900
     23 O15         -0.3600     0.0030    -2.3000 o          1 96N      -0.600100
     24 O16          3.7020     1.0470     2.1220 o          1 96N      -0.522100
     25 C11         -4.5030     0.0020    -1.8190 ca         1 96N      -0.111300
     26 H1          -2.8550     0.8890    -2.8330 h1         1 96N       0.062700
     27 H2          -2.8540    -0.8800    -2.8360 h1         1 96N       0.062700
     28 H4          -7.1000    -2.1130    -1.4440 ha         1 96N       0.132000
     29 H5          -8.2240    -0.0720    -0.7260 ha         1 96N       0.135000
     30 H6           1.7630    -0.5110    -2.0280 hc         1 96N       0.059200
     31 H7           3.1850    -0.5110    -0.9750 hc         1 96N       0.059200
     32 H8           3.6190     1.6410    -1.4890 hc         1 96N       0.038033
     33 H9           2.2950     1.5870    -2.6600 hc         1 96N       0.038033
     34 H10          1.9870     2.1220    -1.0030 hc         1 96N       0.038033
     35 H11          3.2510    -2.1240     1.7280 hc         1 96N       0.060367
     36 H12          4.7730    -1.3000     1.3610 hc         1 96N       0.060367
     37 H13          4.2110    -1.4160     3.0350 hc         1 96N       0.060367
     38 H14         -8.1360     2.3690    -0.2940 ha         1 96N       0.134000
     39 H15         -6.8610     4.4500    -0.2850 ha         1 96N       0.131000
     40 H16         -4.5010     4.4860    -0.9800 ha         1 96N       0.133000
     41 H17         -3.3770     2.4440    -1.6950 ha         1 96N       0.144000
     42 H18         -1.3930     0.0090     1.5990 hn         1 96N       0.295700
     43 H19          0.8830    -0.9600     4.0070 hc         1 96N       0.054033
     44 H20          1.2440     0.7720     4.0170 hc         1 96N       0.054033
     45 H21         -0.4360     0.2180     3.9620 hc         1 96N       0.054033
     46 H22         -2.6100    -0.0390    -0.1430 hn         1 96N       0.308500
     47 H3          -4.7400    -2.0770    -2.1390 ha         1 96N       0.134000
@<TRIPOS>BOND
     1     7     8 ar
     2     7     6 ar
     3     8     9 ar
     4     6    25 ar
     5     9    16 ar
     6     9    10 ar
     7    16    17 ar
     8    23     3 2
     9    21     4 1
    10    25    10 ar
    11    25     2 1
    12    20     4 1
    13    20     1 1
    14    10    19 ar
    15    17    18 ar
    16     4     5 2
    17     3     1 1
    18     3    22 1
    19     1    11 2
    20     2    22 1
    21    19    18 ar
    22     5    11 1
    23     5    14 1
    24    11    12 1
    25    24    14 2
    26    14    15 1
    27    12    13 1
    28     2    26 1
    29     2    27 1
    30     6    47 1
    31     7    28 1
    32     8    29 1
    33    12    30 1
    34    12    31 1
    35    13    32 1
    36    13    33 1
    37    13    34 1
    38    15    35 1
    39    15    36 1
    40    15    37 1
    41    16    38 1
    42    17    39 1
    43    18    40 1
    44    19    41 1
    45    20    42 1
    46    21    43 1
    47    21    44 1
    48    21    45 1
    49    22    46 1
@<TRIPOS>SUBSTRUCTURE
     1 96N         1 TEMP              0 ****  ****    0 ROOT
