@<TRIPOS>MOLECULE
96N
   47    49     1     0     0
SMALL
bcc


@<TRIPOS>ATOM
      1 C2           0.0000     0.0000     0.0000 cc         1 96N      -0.423900
      2 C3          -3.0580     0.0030    -2.2430 c3         1 96N       0.113300
      3 C1          -0.8590     0.0020    -1.1910 c          1 96N       0.640700
      4 C4           0.6260     0.0070     2.1290 cc         1 96N      -0.268600
      5 C5           1.7750     0.0000     1.3550 cd         1 96N      -0.267600
      6 C13         -5.2180    -1.1570    -1.8240 ca         1 96N      -0.076000
      7 C14         -6.5540    -1.1770    -1.4300 ca         1 96N      -0.107000
      8 C15         -7.1850    -0.0400    -1.0290 ca         1 96N      -0.075000
      9 C16         -6.4800     1.1760    -1.0110 ca         1 96N      -0.040000
     10 C17         -5.1200     1.1970    -1.4110 ca         1 96N      -0.021000
     11 C6           1.3620     0.0000     0.0000 cd         1 96N      -0.007300
     12 C7           2.2590    -0.0000    -1.2110 c3         1 96N       0.038900
     13 C8           2.5620     1.4430    -1.6210 c3         1 96N       0.010900
     14 C9           3.1570    -0.0010     1.8440 c          1 96N       0.670700
     15 C10          3.9000    -1.3020     2.0030 c3         1 96N      -0.089100
     16 C18         -7.0970     2.3700    -0.6030 ca         1 96N      -0.084000
     17 C19         -6.3830     3.5290    -0.5990 ca         1 96N      -0.100000
     18 C20         -5.0470     3.5500    -0.9920 ca         1 96N      -0.089000
     19 C21         -4.4160     2.4120    -1.3920 ca         1 96N      -0.107000
     20 N3          -0.4350     0.0050     1.3080 na         1 96N       0.438900
     21 C12          0.5760     0.0100     3.6340 c3         1 96N       0.100200
     22 N13         -2.2000     0.0010    -1.0550 ns         1 96N      -0.212900
     23 O15         -0.3600     0.0030    -2.3000 o          1 96N      -0.640100
     24 O16          3.7020     1.0470     2.1220 o          1 96N      -0.560100
     25 C11         -4.5030     0.0020    -1.8190 ca         1 96N      -0.118300
     26 H1          -2.8550     0.8890    -2.8330 h1         1 96N       0.033700
     27 H2          -2.8540    -0.8800    -2.8360 h1         1 96N       0.033700
     28 H4          -7.1000    -2.1130    -1.4440 ha         1 96N       0.105000
     29 H5          -8.2240    -0.0720    -0.7260 ha         1 96N       0.108000
     30 H6           1.7630    -0.5110    -2.0280 hc         1 96N       0.029700
     31 H7           3.1850    -0.5110    -0.9750 hc         1 96N       0.029700
     32 H8           3.6190     1.6410    -1.4890 hc         1 96N       0.004367
     33 H9           2.2950     1.5870    -2.6600 hc         1 96N       0.004367
     34 H10          1.9870     2.1220    -1.0030 hc         1 96N       0.004367
     35 H11          3.2510    -2.1240     1.7280 hc         1 96N       0.023700
     36 H12          4.7730    -1.3000     1.3610 hc         1 96N       0.023700
     37 H13          4.2110    -1.4160     3.0350 hc         1 96N       0.023700
     38 H14         -8.1360     2.3690    -0.2940 ha         1 96N       0.107000
     39 H15         -6.8610     4.4500    -0.2850 ha         1 96N       0.103000
     40 H16         -4.5010     4.4860    -0.9800 ha         1 96N       0.104000
     41 H17         -3.3770     2.4440    -1.6950 ha         1 96N       0.118000
     42 H18         -1.3930     0.0090     1.5990 hn         1 96N       0.106700
     43 H19          0.8830    -0.9600     4.0070 hc         1 96N       0.011700
     44 H20          1.2440     0.7720     4.0170 hc         1 96N       0.011700
     45 H21         -0.4360     0.2180     3.9620 hc         1 96N       0.011700
     46 H22         -2.6100    -0.0390    -0.1430 hn         1 96N       0.167500
     47 H3          -4.7400    -2.0770    -2.1390 ha         1 96N       0.108000
@<TRIPOS>BOND
     1     1     3 1   
     2     1    11 2   
     3     1    20 1   
     4     2    22 1   
     5     2    25 1   
     6     2    26 1   
     7     2    27 1   
     8     3    22 1   
     9     3    23 2   
    10     4     5 2   
    11     4    20 1   
    12     4    21 1   
    13     5    11 1   
    14     5    14 1   
    15     6     7 ar  
    16     6    25 ar  
    17     6    47 1   
    18     7     8 ar  
    19     7    28 1   
    20     8     9 ar  
    21     8    29 1   
    22     9    10 ar  
    23     9    16 ar  
    24    10    19 ar  
    25    10    25 ar  
    26    11    12 1   
    27    12    13 1   
    28    12    30 1   
    29    12    31 1   
    30    13    32 1   
    31    13    33 1   
    32    13    34 1   
    33    14    15 1   
    34    14    24 2   
    35    15    35 1   
    36    15    36 1   
    37    15    37 1   
    38    16    17 ar  
    39    16    38 1   
    40    17    18 ar  
    41    17    39 1   
    42    18    19 ar  
    43    18    40 1   
    44    19    41 1   
    45    20    42 1   
    46    21    43 1   
    47    21    44 1   
    48    21    45 1   
    49    22    46 1   
@<TRIPOS>SUBSTRUCTURE
     1 96N         1 TEMP              0 ****  ****    0 ROOT
