@<TRIPOS>MOLECULE
96P
   61    63     1     0     0
SMALL
bcc


@<TRIPOS>ATOM
      1 F3           0.0000     0.0000     0.0000 f          1 96P      -0.206967
      2 C24          1.3990     0.0000     0.0000 c3         1 96P       0.640200
      3 F1           1.8650     0.0000     1.3190 f          1 96P      -0.206967
      4 F2           1.8650    -1.1430    -0.6590 f          1 96P      -0.206967
      5 C23          1.9010     1.2300    -0.7110 ca         1 96P      -0.192300
      6 C22          2.1250     1.1960    -2.0750 ca         1 96P      -0.049000
      7 C21          2.5860     2.3240    -2.7300 ca         1 96P      -0.091000
      8 C20          2.8230     3.4870    -2.0230 ca         1 96P      -0.077000
      9 C25          2.1310     2.3910    -0.0000 ca         1 96P      -0.054000
     10 C19          2.5980     3.5230    -0.6550 ca         1 96P       0.134100
     11 O12          2.8260     4.6670     0.0430 os         1 96P      -0.329200
     12 C1           3.8690     4.6680     0.8930 c          1 96P       0.670100
     13 O1           4.6220     3.7150     0.9320 o          1 96P      -0.638000
     14 N            4.0790     5.7250     1.7020 ns         1 96P      -0.166900
     15 C2           5.2150     5.7260     2.6270 c3         1 96P       0.062000
     16 C3           5.2230     7.0330     3.4230 c3         1 96P       0.156100
     17 O7           5.3430     8.1550     2.5100 os         1 96P      -0.407900
     18 C12          4.7710     9.3150     2.8880 c          1 96P       0.723700
     19 C13          4.8530    10.4980     2.0090 ca         1 96P      -0.130600
     20 C18          4.2600    11.7020     2.4010 ca         1 96P      -0.092500
     21 C17          4.3370    12.8080     1.5770 ca         1 96P       0.094100
     22 O11          3.7620    13.9810     1.9560 oh         1 96P      -0.484600
     23 C16          5.0050    12.7250     0.3570 ca         1 96P       0.100100
     24 O10          5.0800    13.8140    -0.4520 oh         1 96P      -0.477100
     25 C15          5.5970    11.5260    -0.0350 ca         1 96P       0.094100
     26 O9           6.2490    11.4480    -1.2260 oh         1 96P      -0.484600
     27 C14          5.5270    10.4180     0.7890 ca         1 96P      -0.092500
     28 O8           4.1890     9.3880     3.9520 o          1 96P      -0.577000
     29 C4           6.4100     7.0330     4.3900 c3         1 96P       0.207400
     30 O2           6.3520     8.2180     5.2270 os         1 96P      -0.398900
     31 C5           7.3310     8.3720     6.1390 c          1 96P       0.721700
     32 O3           8.2100     7.5380     6.2320 o          1 96P      -0.587000
     33 C6           7.3370     9.5510     7.0240 ca         1 96P      -0.128600
     34 C11          6.3220    10.5080     6.9220 ca         1 96P      -0.092000
     35 C10          6.3300    11.6120     7.7530 ca         1 96P       0.089600
     36 O6           5.3430    12.5440     7.6540 oh         1 96P      -0.490100
     37 C9           7.3460    11.7720     8.6920 ca         1 96P       0.099100
     38 O5           7.3500    12.8590     9.5070 oh         1 96P      -0.486100
     39 C8           8.3570    10.8200     8.7960 ca         1 96P       0.089600
     40 O4           9.3470    10.9790     9.7150 oh         1 96P      -0.490100
     41 C7           8.3520     9.7120     7.9710 ca         1 96P      -0.092000
     42 H1           1.9400     0.2850    -2.6320 ha         1 96P       0.119000
     43 H2           2.7610     2.2950    -3.7990 ha         1 96P       0.112000
     44 H3           3.1860     4.3690    -2.5360 ha         1 96P       0.114000
     45 H4           1.9540     2.4170     1.0680 ha         1 96P       0.127000
     46 H5           3.4340     6.4910     1.7000 hn         1 96P       0.181500
     47 H6           6.1380     5.6390     2.0660 h1         1 96P       0.040700
     48 H7           5.1260     4.8880     3.3080 h1         1 96P       0.040700
     49 H8           4.3000     7.1200     3.9840 h1         1 96P       0.051700
     50 H9           3.6900    11.7510     3.3210 ha         1 96P       0.134000
     51 H10          4.2880    14.3880     2.6240 ho         1 96P       0.407500
     52 H11          5.8810    14.2790    -0.2790 ho         1 96P       0.408000
     53 H12          5.6910    11.0330    -1.8620 ho         1 96P       0.407500
     54 H13          5.9880     9.4860     0.4840 ha         1 96P       0.134000
     55 H14          7.3350     7.0340     3.8260 h1         1 96P       0.026200
     56 H15          6.3680     6.1480     5.0130 h1         1 96P       0.026200
     57 H16          5.5030    10.3570     6.2290 ha         1 96P       0.139500
     58 H17          4.5850    12.2500     8.1320 ho         1 96P       0.410000
     59 H18          7.8610    13.5460     9.1130 ho         1 96P       0.415000
     60 H19          9.2080    10.3850    10.4340 ho         1 96P       0.410000
     61 H20          9.1390     8.9720     8.0530 ha         1 96P       0.139500
@<TRIPOS>BOND
     1     1     2 1   
     2     2     3 1   
     3     2     4 1   
     4     2     5 1   
     5     5     6 ar  
     6     5     9 ar  
     7     6     7 ar  
     8     6    42 1   
     9     7     8 ar  
    10     7    43 1   
    11     8    10 ar  
    12     8    44 1   
    13     9    10 ar  
    14     9    45 1   
    15    10    11 1   
    16    11    12 1   
    17    12    13 2   
    18    12    14 1   
    19    14    15 1   
    20    14    46 1   
    21    15    16 1   
    22    15    47 1   
    23    15    48 1   
    24    16    17 1   
    25    16    29 1   
    26    16    49 1   
    27    17    18 1   
    28    18    19 1   
    29    18    28 2   
    30    19    20 ar  
    31    19    27 ar  
    32    20    21 ar  
    33    20    50 1   
    34    21    22 1   
    35    21    23 ar  
    36    22    51 1   
    37    23    24 1   
    38    23    25 ar  
    39    24    52 1   
    40    25    26 1   
    41    25    27 ar  
    42    26    53 1   
    43    27    54 1   
    44    29    30 1   
    45    29    55 1   
    46    29    56 1   
    47    30    31 1   
    48    31    32 2   
    49    31    33 1   
    50    33    34 ar  
    51    33    41 ar  
    52    34    35 ar  
    53    34    57 1   
    54    35    36 1   
    55    35    37 ar  
    56    36    58 1   
    57    37    38 1   
    58    37    39 ar  
    59    38    59 1   
    60    39    40 1   
    61    39    41 ar  
    62    40    60 1   
    63    41    61 1   
@<TRIPOS>SUBSTRUCTURE
     1 96P         1 TEMP              0 ****  ****    0 ROOT
