@<TRIPOS>MOLECULE
molecule
   61    63     1     0     0
SMALL
bcc


@<TRIPOS>ATOM
      1 F3           0.0000     0.0000     0.0000 f          1 96P      -0.221633
      2 C24          1.3990     0.0000     0.0000 c3         1 96P       0.675200
      3 F1           1.8650     0.0000     1.3190 f          1 96P      -0.221633
      4 F2           1.8650    -1.1430    -0.6590 f          1 96P      -0.221633
      5 C23          1.9010     1.2300    -0.7110 ca         1 96P      -0.167300
      6 C22          2.1250     1.1960    -2.0750 ca         1 96P      -0.081000
      7 C21          2.5860     2.3240    -2.7300 ca         1 96P      -0.122000
      8 C20          2.8230     3.4870    -2.0230 ca         1 96P      -0.098000
      9 C25          2.1310     2.3910    -0.0000 ca         1 96P      -0.083000
     10 C19          2.5980     3.5230    -0.6550 ca         1 96P       0.122100
     11 O12          2.8260     4.6670     0.0430 os         1 96P      -0.347200
     12 C1           3.8690     4.6680     0.8930 c          1 96P       0.746100
     13 O1           4.6220     3.7150     0.9320 o          1 96P      -0.586000
     14 N            4.0790     5.7250     1.7020 ns         1 96P      -0.568900
     15 C2           5.2150     5.7260     2.6270 c3         1 96P       0.138000
     16 C3           5.2230     7.0330     3.4230 c3         1 96P       0.129100
     17 O7           5.3430     8.1550     2.5100 os         1 96P      -0.422900
     18 C12          4.7710     9.3150     2.8880 c          1 96P       0.653700
     19 C13          4.8530    10.4980     2.0090 ca         1 96P      -0.118600
     20 C18          4.2600    11.7020     2.4010 ca         1 96P      -0.105500
     21 C17          4.3370    12.8080     1.5770 ca         1 96P       0.081100
     22 O11          3.7620    13.9810     1.9560 oh         1 96P      -0.504100
     23 C16          5.0050    12.7250     0.3570 ca         1 96P       0.102100
     24 O10          5.0800    13.8140    -0.4520 oh         1 96P      -0.498100
     25 C15          5.5970    11.5260    -0.0350 ca         1 96P       0.081100
     26 O9           6.2490    11.4480    -1.2260 oh         1 96P      -0.504100
     27 C14          5.5270    10.4180     0.7890 ca         1 96P      -0.105500
     28 O8           4.1890     9.3880     3.9520 o          1 96P      -0.536000
     29 C4           6.4100     7.0330     4.3900 c3         1 96P       0.134400
     30 O2           6.3520     8.2180     5.2270 os         1 96P      -0.414900
     31 C5           7.3310     8.3720     6.1390 c          1 96P       0.654700
     32 O3           8.2100     7.5380     6.2320 o          1 96P      -0.546000
     33 C6           7.3370     9.5510     7.0240 ca         1 96P      -0.118600
     34 C11          6.3220    10.5080     6.9220 ca         1 96P      -0.104500
     35 C10          6.3300    11.6120     7.7530 ca         1 96P       0.076600
     36 O6           5.3430    12.5440     7.6540 oh         1 96P      -0.509100
     37 C9           7.3460    11.7720     8.6920 ca         1 96P       0.103100
     38 O5           7.3500    12.8590     9.5070 oh         1 96P      -0.507100
     39 C8           8.3570    10.8200     8.7960 ca         1 96P       0.076600
     40 O4           9.3470    10.9790     9.7150 oh         1 96P      -0.509100
     41 C7           8.3520     9.7120     7.9710 ca         1 96P      -0.104500
     42 H1           1.9400     0.2850    -2.6320 ha         1 96P       0.150000
     43 H2           2.7610     2.2950    -3.7990 ha         1 96P       0.145000
     44 H3           3.1860     4.3690    -2.5360 ha         1 96P       0.148000
     45 H4           1.9540     2.4170     1.0680 ha         1 96P       0.158000
     46 H5           3.4340     6.4910     1.7000 hn         1 96P       0.331500
     47 H6           6.1380     5.6390     2.0660 h1         1 96P       0.073200
     48 H7           5.1260     4.8880     3.3080 h1         1 96P       0.073200
     49 H8           4.3000     7.1200     3.9840 h1         1 96P       0.088700
     50 H9           3.6900    11.7510     3.3210 ha         1 96P       0.166000
     51 H10          4.2880    14.3880     2.6240 ho         1 96P       0.426000
     52 H11          5.8810    14.2790    -0.2790 ho         1 96P       0.430000
     53 H12          5.6910    11.0330    -1.8620 ho         1 96P       0.426000
     54 H13          5.9880     9.4860     0.4840 ha         1 96P       0.166000
     55 H14          7.3350     7.0340     3.8260 h1         1 96P       0.067700
     56 H15          6.3680     6.1480     5.0130 h1         1 96P       0.067700
     57 H16          5.5030    10.3570     6.2290 ha         1 96P       0.171000
     58 H17          4.5850    12.2500     8.1320 ho         1 96P       0.428500
     59 H18          7.8610    13.5460     9.1130 ho         1 96P       0.436000
     60 H19          9.2080    10.3850    10.4340 ho         1 96P       0.428500
     61 H20          9.1390     8.9720     8.0530 ha         1 96P       0.171000
@<TRIPOS>BOND
     1    24    23 1
     2    22    21 1
     3     4     2 1
     4    23    21 ar
     5    23    25 ar
     6    21    20 ar
     7    26    25 1
     8    25    27 ar
     9     1     2 1
    10     2     3 1
    11     2     5 1
    12    20    19 ar
    13    27    19 ar
    14     5     9 ar
    15     5     6 ar
    16    19    18 1
    17     9    10 ar
    18     6     7 ar
    19    10    11 1
    20    10     8 ar
    21    18    28 2
    22    18    17 1
    23    11    12 1
    24     7     8 ar
    25    17    16 1
    26    12    14 1
    27    12    13 2
    28    14    15 1
    29    16    15 1
    30    16    29 1
    31    29    30 1
    32    30    31 1
    33    31    32 2
    34    31    33 1
    35    34    33 ar
    36    34    35 ar
    37    36    35 1
    38    33    41 ar
    39    35    37 ar
    40    41    39 ar
    41    37    39 ar
    42    37    38 1
    43    39    40 1
    44     6    42 1
    45     7    43 1
    46     8    44 1
    47     9    45 1
    48    14    46 1
    49    15    47 1
    50    15    48 1
    51    16    49 1
    52    20    50 1
    53    22    51 1
    54    24    52 1
    55    26    53 1
    56    27    54 1
    57    29    55 1
    58    29    56 1
    59    34    57 1
    60    36    58 1
    61    38    59 1
    62    40    60 1
    63    41    61 1
@<TRIPOS>SUBSTRUCTURE
     1 96P         1 TEMP              0 ****  ****    0 ROOT
