@<TRIPOS>MOLECULE
molecule
   27    29     1     0     0
SMALL
bcc


@<TRIPOS>ATOM
      1 C1           0.0000     0.0000     0.0000 ca         1 96R      -0.139000
      2 C2           1.3630     0.0000     0.0000 ca         1 96R      -0.096000
      3 C3           2.0780     0.0000     1.1950 ca         1 96R      -0.188000
      4 C4           1.4330     0.0010     2.3990 ca         1 96R       0.087800
      5 C5           0.0230     0.0010     2.4350 ca         1 96R       0.423600
      6 C6          -0.6960     0.0070     1.2180 ca         1 96R      -0.146300
      7 C7          -2.1110     0.0070     1.2550 ca         1 96R       0.034800
      8 C8          -2.7250     0.0020     2.4790 ca         1 96R      -0.249300
      9 C9          -1.9520    -0.0030     3.6450 ca         1 96R       0.689200
     10 N10         -0.6350     0.0080     3.6000 nb         1 96R      -0.675000
     11 O11          2.1460     0.0010     3.5550 oh         1 96R      -0.485100
     12 N12         -2.5890    -0.0070     4.8790 nv         1 96R      -1.081500
     13 N14         -2.8600     0.0120     0.0760 na         1 96R      -0.120000
     14 C15         -3.8950    -0.8310    -0.2360 cc         1 96R      -0.265600
     15 C16         -4.3300    -0.4780    -1.4610 cd         1 96R       0.314200
     16 N17         -3.5840     0.5510    -1.8900 nd         1 96R      -0.690000
     17 C18         -2.7030     0.8580    -0.9770 cc         1 96R       0.403400
     18 H1          -0.5440    -0.0000    -0.9370 ha         1 96R       0.149000
     19 H2           1.8970    -0.0010    -0.9420 ha         1 96R       0.138000
     20 H3           3.1610     0.0000     1.1690 ha         1 96R       0.141000
     21 H4          -3.8060    -0.0070     2.5440 ha         1 96R       0.156000
     22 H5           2.7800    -0.6960     3.5330 ho         1 96R       0.421000
     23 H6          -2.7920    -0.8750     5.3340 hn         1 96R       0.440300
     24 H7          -2.8200     0.8590     5.3250 hn         1 96R       0.440300
     25 H8          -4.2880    -1.6270     0.3840 h4         1 96R       0.178000
     26 H9          -5.1410    -0.9470    -2.0060 h4         1 96R       0.044100
     27 H10         -1.9670     1.6490    -1.0490 h5         1 96R       0.073100
@<TRIPOS>BOND
     1    12     9 1
     2    17    16 2
     3    17    13 1
     4     9     8 ar
     5     9    10 ar
     6     8     7 ar
     7    16    15 1
     8    10     5 ar
     9     7    13 1
    10     7     6 ar
    11    13    14 1
    12     5     6 ar
    13     5     4 ar
    14    15    14 2
    15     6     1 ar
    16    11     4 1
    17     4     3 ar
    18     1     2 ar
    19     3     2 ar
    20     1    18 1
    21     2    19 1
    22     3    20 1
    23     8    21 1
    24    11    22 1
    25    12    23 1
    26    12    24 1
    27    14    25 1
    28    15    26 1
    29    17    27 1
@<TRIPOS>SUBSTRUCTURE
     1 96R         1 TEMP              0 ****  ****    0 ROOT
