@<TRIPOS>MOLECULE
96R
   27    29     1     0     0
SMALL
bcc


@<TRIPOS>ATOM
      1 C1           0.0000     0.0000     0.0000 ca         1 96R      -0.142000
      2 C2           1.3630     0.0000     0.0000 ca         1 96R      -0.045000
      3 C3           2.0780     0.0000     1.1950 ca         1 96R      -0.182000
      4 C4           1.4330     0.0010     2.3990 ca         1 96R       0.108800
      5 C5           0.0230     0.0010     2.4350 ca         1 96R       0.358600
      6 C6          -0.6960     0.0070     1.2180 ca         1 96R      -0.115300
      7 C7          -2.1110     0.0070     1.2550 ca         1 96R      -0.150200
      8 C8          -2.7250     0.0020     2.4790 ca         1 96R      -0.193300
      9 C9          -1.9520    -0.0030     3.6450 ca         1 96R       0.491200
     10 N10         -0.6350     0.0080     3.6000 nb         1 96R      -0.533000
     11 O11          2.1460     0.0010     3.5550 oh         1 96R      -0.466100
     12 N12         -2.5890    -0.0070     4.8790 nv         1 96R      -0.657500
     13 N14         -2.8600     0.0120     0.0760 na         1 96R       0.408000
     14 C15         -3.8950    -0.8310    -0.2360 cc         1 96R      -0.439600
     15 C16         -4.3300    -0.4780    -1.4610 cd         1 96R       0.327200
     16 N17         -3.5840     0.5510    -1.8900 nd         1 96R      -0.614000
     17 C18         -2.7030     0.8580    -0.9770 cc         1 96R       0.209400
     18 H1          -0.5440    -0.0000    -0.9370 ha         1 96R       0.130000
     19 H2           1.8970    -0.0010    -0.9420 ha         1 96R       0.107000
     20 H3           3.1610     0.0000     1.1690 ha         1 96R       0.116000
     21 H4          -3.8060    -0.0070     2.5440 ha         1 96R       0.129000
     22 H5           2.7800    -0.6960     3.5330 ho         1 96R       0.404000
     23 H6          -2.7920    -0.8750     5.3340 hn         1 96R       0.279800
     24 H7          -2.8200     0.8590     5.3250 hn         1 96R       0.279800
     25 H8          -4.2880    -1.6270     0.3840 h4         1 96R       0.156000
     26 H9          -5.1410    -0.9470    -2.0060 h4         1 96R       0.004100
     27 H10         -1.9670     1.6490    -1.0490 h5         1 96R       0.032100
@<TRIPOS>BOND
     1     1     2 ar  
     2     1     6 ar  
     3     1    18 1   
     4     2     3 ar  
     5     2    19 1   
     6     3     4 ar  
     7     3    20 1   
     8     4     5 ar  
     9     4    11 1   
    10     5     6 ar  
    11     5    10 ar  
    12     6     7 ar  
    13     7     8 ar  
    14     7    13 1   
    15     8     9 ar  
    16     8    21 1   
    17     9    10 ar  
    18     9    12 1   
    19    11    22 1   
    20    12    23 1   
    21    12    24 1   
    22    13    14 1   
    23    13    17 1   
    24    14    15 2   
    25    14    25 1   
    26    15    16 1   
    27    15    26 1   
    28    16    17 2   
    29    17    27 1   
@<TRIPOS>SUBSTRUCTURE
     1 96R         1 TEMP              0 ****  ****    0 ROOT
