@<TRIPOS>MOLECULE
96T
   70    75     1     0     0
SMALL
bcc


@<TRIPOS>ATOM
      1 OBD          0.0000     0.0000     0.0000 oh         1 96T      -0.306000
      2 CBC          1.4300     0.0000     0.0000 c3         1 96T       0.086000
      3 CBB          1.9400     0.0000     1.4430 c3         1 96T      -0.145000
      4 CAZ          3.4640    -0.1240     1.4440 c3         1 96T      -0.152000
      5 NAU          3.9430    -0.2500     2.8230 nh         1 96T       0.329000
      6 CAT          3.7870     0.7280     3.7570 ca         1 96T      -0.167000
      7 CAS          3.1900     1.9940     3.6750 ca         1 96T      -0.089000
      8 CAR          3.1590     2.8130     4.7830 ca         1 96T      -0.065000
      9 CAC          3.7130     2.3970     5.9810 ca         1 96T      -0.081000
     10 CAD          4.3060     1.1470     6.0740 ca         1 96T      -0.035000
     11 CAE          4.3420     0.3240     4.9760 ca         1 96T      -0.113000
     12 CAF          4.8920    -1.0620     4.7280 c3         1 96T      -0.008000
     13 CAP          6.4060    -1.0880     4.9540 c3         1 96T      -0.102000
     14 CAA          4.1960    -2.0870     5.6240 c3         1 96T      -0.102000
     15 CAG          4.5550    -1.3140     3.2730 c3         1 96T       0.008000
     16 CAH          4.8480    -2.4750     2.5410 c2         1 96T      -0.336000
     17 CAI          5.2740    -2.3790     1.2500 c2         1 96T      -0.186000
     18 CAJ          5.4300    -3.5410     0.4720 c3         1 96T      -0.179000
     19 CAK          5.8620    -3.4460    -0.8070 c2         1 96T      -0.066000
     20 CAL          6.2830    -4.5890    -1.7050 c3         1 96T      -0.003000
     21 CAQ          7.4840    -5.3250    -1.1070 c3         1 96T      -0.093500
     22 CAB          5.1160    -5.5550    -1.9240 c3         1 96T      -0.093500
     23 CAM          6.6660    -3.9190    -3.0040 ca         1 96T      -0.077000
     24 CAN          7.1270    -4.4110    -4.2040 ca         1 96T      -0.050000
     25 CAO          7.4010    -3.5430    -5.2480 ca         1 96T      -0.044000
     26 CAY          7.2120    -2.1830    -5.0790 ca         1 96T      -0.073000
     27 CAX          6.7500    -1.6870    -3.8780 ca         1 96T      -0.049000
     28 CAW          6.4710    -2.5550    -2.8220 ca         1 96T      -0.219000
     29 NAV          5.9970    -2.2980    -1.5380 nh         1 96T       0.461000
     30 CBA          5.6860    -0.9590    -1.0300 c3         1 96T      -0.160000
     31 CBE          6.8710    -0.4320    -0.2190 c3         1 96T      -0.154000
     32 CBF          6.5000     0.9110     0.4120 c3         1 96T       0.071000
     33 OBG          7.6450     1.4610     1.0690 oh         1 96T      -0.307000
     34 H1          -0.3140     0.2470    -0.8540 ho         1 96T       0.200000
     35 H2           1.7910    -0.8850    -0.5110 h1         1 96T       0.019000
     36 H3           1.7910     0.8850    -0.5110 h1         1 96T       0.019000
     37 H4           1.5090    -0.8370     1.9780 hc         1 96T       0.086500
     38 H5           1.6520     0.9250     1.9270 hc         1 96T       0.086500
     39 H6           3.7560    -1.0020     0.8790 h1         1 96T       0.092500
     40 H7           3.8990     0.7580     0.9900 h1         1 96T       0.092500
     41 H8           2.7540     2.3290     2.7420 ha         1 96T       0.114000
     42 H9           2.6970     3.7910     4.7160 ha         1 96T       0.118000
     43 H10          3.6830     3.0480     6.8460 ha         1 96T       0.120000
     44 H11          4.7390     0.8210     7.0110 ha         1 96T       0.117000
     45 H12          6.6200    -0.8570     5.9900 hc         1 96T       0.061833
     46 H13          6.7890    -2.0740     4.7170 hc         1 96T       0.061833
     47 H14          6.8790    -0.3540     4.3140 hc         1 96T       0.061833
     48 H15          4.5440    -3.0810     5.3730 hc         1 96T       0.061833
     49 H16          3.1250    -2.0300     5.4740 hc         1 96T       0.061833
     50 H17          4.4270    -1.8750     6.6620 hc         1 96T       0.061833
     51 H18          5.6280    -1.9140     3.0410 DU         1 96T       0.161000
     52 H19          6.1770    -2.9740     1.3020 DU         1 96T       0.238000
     53 H21          5.1470    -4.5050     0.8770 hc         1 96T       0.161000
     54 H22          7.2040    -5.7610    -0.1560 hc         1 96T       0.061333
     55 H23          7.8010    -6.1090    -1.7850 hc         1 96T       0.061333
     56 H24          8.2990    -4.6270    -0.9580 hc         1 96T       0.061333
     57 H25          4.2620    -5.0090    -2.3050 hc         1 96T       0.061333
     58 H26          5.4060    -6.3160    -2.6380 hc         1 96T       0.061333
     59 H27          4.8540    -6.0240    -0.9830 hc         1 96T       0.061333
     60 H28          7.2740    -5.4760    -4.3330 ha         1 96T       0.124000
     61 H29          7.7640    -3.9280    -6.1930 ha         1 96T       0.125000
     62 H30          7.4270    -1.5040    -5.8950 ha         1 96T       0.125000
     63 H31          6.6040    -0.6210    -3.7530 ha         1 96T       0.113000
     64 H32          5.4930    -0.2930    -1.8620 h1         1 96T       0.105000
     65 H33          4.8090    -1.0080    -0.3960 h1         1 96T       0.105000
     66 H34          7.7250    -0.3000    -0.8720 hc         1 96T       0.081500
     67 H35          7.1190    -1.1420     0.5610 hc         1 96T       0.081500
     68 H36          6.1640     1.5920    -0.3600 h1         1 96T       0.036500
     69 H20          5.7060     0.7630     1.1340 h1         1 96T       0.036500
     70 H37          7.8380     2.3090     0.7050 ho         1 96T       0.203000
@<TRIPOS>BOND
     1     1     2 1   
     2     1    34 1   
     3     2     3 1   
     4     2    35 1   
     5     2    36 1   
     6     3     4 1   
     7     3    37 1   
     8     3    38 1   
     9     4     5 1   
    10     4    39 1   
    11     4    40 1   
    12     5     6 1   
    13     5    15 1   
    14     6     7 1   
    15     6    11 1   
    16     7     8 1   
    17     7    41 1   
    18     8     9 1   
    19     8    42 1   
    20     9    10 1   
    21     9    43 1   
    22    10    11 1   
    23    10    44 1   
    24    11    12 1   
    25    12    13 1   
    26    12    14 1   
    27    12    15 1   
    28    13    45 1   
    29    13    46 1   
    30    13    47 1   
    31    14    48 1   
    32    14    49 1   
    33    14    50 1   
    34    15    16 1   
    35    15    51 1   
    36    16    17 1   
    37    16    51 1   
    38    17    18 1   
    39    17    52 1   
    40    18    19 1   
    41    18    52 1   
    42    18    53 1   
    43    19    20 1   
    44    19    29 1   
    45    20    21 1   
    46    20    22 1   
    47    20    23 1   
    48    21    54 1   
    49    21    55 1   
    50    21    56 1   
    51    22    57 1   
    52    22    58 1   
    53    22    59 1   
    54    23    24 1   
    55    23    28 1   
    56    24    25 1   
    57    24    60 1   
    58    25    26 1   
    59    25    61 1   
    60    26    27 1   
    61    26    62 1   
    62    27    28 1   
    63    27    63 1   
    64    28    29 1   
    65    29    30 1   
    66    30    31 1   
    67    30    64 1   
    68    30    65 1   
    69    31    32 1   
    70    31    66 1   
    71    31    67 1   
    72    32    33 1   
    73    32    68 1   
    74    32    69 1   
    75    33    70 1   
@<TRIPOS>SUBSTRUCTURE
     1 96T         1 TEMP              0 ****  ****    0 ROOT
