@<TRIPOS>MOLECULE
molecule
   70    73     1     0     0
SMALL
bcc


@<TRIPOS>ATOM
      1 OBD          0.0000     0.0000     0.0000 oh         1 96T      -0.595300
      2 CBC          1.4300     0.0000     0.0000 c3         1 96T       0.143400
      3 CBB          1.9400     0.0000     1.4430 c3         1 96T      -0.118900
      4 CAZ          3.4640    -0.1240     1.4440 c3         1 96T       0.006300
      5 NAU          3.9430    -0.2500     2.8230 nh         1 96T      -0.112700
      6 CAT          3.7870     0.7280     3.7570 ca         1 96T      -0.057200
      7 CAS          3.1900     1.9940     3.6750 ca         1 96T      -0.119500
      8 CAR          3.1590     2.8130     4.7830 ca         1 96T      -0.094500
      9 CAC          3.7130     2.3970     5.9810 ca         1 96T      -0.108000
     10 CAD          4.3060     1.1470     6.0740 ca         1 96T      -0.075500
     11 CAE          4.3420     0.3240     4.9760 ca         1 96T      -0.106800
     12 CAF          4.8920    -1.0620     4.7280 c3         1 96T      -0.091000
     13 CAP          6.4060    -1.0880     4.9540 c3         1 96T      -0.070350
     14 CAA          4.1960    -2.0870     5.6240 c3         1 96T      -0.070350
     15 CAG          4.5550    -1.3140     3.2730 ce         1 96T       0.404100
     16 CAH          4.8480    -2.4750     2.5410 ce         1 96T      -0.403600
     17 CAI          5.2740    -2.3790     1.2500 cf         1 96T       0.012000
     18 CAJ          5.4300    -3.5410     0.4720 cf         1 96T      -0.317000
     19 CAK          5.8620    -3.4460    -0.8070 c2         1 96T       0.265300
     20 CAL          6.2830    -4.5890    -1.7050 c3         1 96T      -0.011500
     21 CAQ          7.4840    -5.3250    -1.1070 c3         1 96T      -0.070350
     22 CAB          5.1160    -5.5550    -1.9240 c3         1 96T      -0.070350
     23 CAM          6.6660    -3.9190    -3.0040 ca         1 96T      -0.106800
     24 CAN          7.1270    -4.4110    -4.2040 ca         1 96T      -0.075500
     25 CAO          7.4010    -3.5430    -5.2480 ca         1 96T      -0.108000
     26 CAY          7.2120    -2.1830    -5.0790 ca         1 96T      -0.094500
     27 CAX          6.7500    -1.6870    -3.8780 ca         1 96T      -0.119500
     28 CAW          6.4710    -2.5550    -2.8220 ca         1 96T       0.069600
     29 NAV          5.9970    -2.2980    -1.5380 nh         1 96T      -0.444300
     30 CBA          5.6860    -0.9590    -1.0300 c3         1 96T       0.183800
     31 CBE          6.8710    -0.4320    -0.2190 c3         1 96T      -0.118900
     32 CBF          6.5000     0.9110     0.4120 c3         1 96T       0.143400
     33 OBG          7.6450     1.4610     1.0690 oh         1 96T      -0.595300
     34 H1          -0.3140     0.0250    -0.8890 ho         1 96T       0.419000
     35 H2           1.7910     0.8850    -0.5110 h1         1 96T       0.020700
     36 H3           1.7910    -0.8850    -0.5110 h1         1 96T       0.020700
     37 H4           1.5090    -0.8370     1.9780 hc         1 96T       0.079950
     38 H5           1.6520     0.9250     1.9270 hc         1 96T       0.079950
     39 H6           3.7560    -1.0020     0.8790 h1         1 96T       0.074450
     40 H7           3.8990     0.7580     0.9900 h1         1 96T       0.074450
     41 H8           2.7540     2.3290     2.7420 ha         1 96T       0.139000
     42 H9           2.6970     3.7910     4.7160 ha         1 96T       0.154500
     43 H10          3.6830     3.0480     6.8460 ha         1 96T       0.156000
     44 H11          4.7390     0.8210     7.0110 ha         1 96T       0.151500
     45 H12          6.8700    -0.2950     4.3810 hc         1 96T       0.056450
     46 H13          6.8020    -2.0440     4.6330 hc         1 96T       0.056450
     47 H14          6.6170    -0.9460     6.0070 hc         1 96T       0.056450
     48 H15          3.1410    -2.1210     5.3830 hc         1 96T       0.056450
     49 H16          4.3200    -1.8020     6.6620 hc         1 96T       0.056450
     50 H17          4.6350    -3.0640     5.4630 hc         1 96T       0.056450
     51 H18          4.6310    -3.4480     2.9650 ha         1 96T       0.178500
     52 H19          5.3870    -1.4040     0.7910 ha         1 96T       0.150000
     53 H21          5.3600    -4.5140     0.9440 ha         1 96T       0.178500
     54 H22          7.1930    -5.7960    -0.1760 hc         1 96T       0.056450
     55 H23          8.2840    -4.6190    -0.9200 hc         1 96T       0.056450
     56 H24          7.8270    -6.0820    -1.8030 hc         1 96T       0.056450
     57 H25          4.2620    -5.0090    -2.3070 hc         1 96T       0.056450
     58 H26          4.8530    -6.0230    -0.9830 hc         1 96T       0.056450
     59 H27          5.4070    -6.3170    -2.6370 hc         1 96T       0.056450
     60 H28          7.2740    -5.4760    -4.3330 ha         1 96T       0.151500
     61 H29          7.7640    -3.9280    -6.1930 ha         1 96T       0.156000
     62 H30          7.4270    -1.5040    -5.8950 ha         1 96T       0.154500
     63 H31          6.6040    -0.6210    -3.7530 ha         1 96T       0.139000
     64 H32          4.8080    -1.0080    -0.3960 h1         1 96T       0.074450
     65 H33          5.4930    -0.2930    -1.8620 h1         1 96T       0.074450
     66 H34          7.1190    -1.1420     0.5610 hc         1 96T       0.079950
     67 H35          7.7250    -0.3000    -0.8720 hc         1 96T       0.079950
     68 H36          5.7060     0.7630     1.1340 h1         1 96T       0.020700
     69 H20          6.1640     1.5920    -0.3600 h1         1 96T       0.020700
     70 H37          7.6370     2.4000     0.9800 ho         1 96T       0.419000
@<TRIPOS>BOND
     1     2     1 1
     2     2     3 1
     3     8     7 ar
     4     8     9 ar
     5     3     4 1
     6     7     6 ar
     7     9    10 ar
     8     6    11 ar
     9     6     5 1
    10     4     5 1
    11    10    11 ar
    12    11    12 1
    13     5    15 2
    14    13    12 1
    15    15    12 1
    16    15    16 1
    17    12    14 1
    18    16    17 2
    19    17    18 1
    20    30    31 1
    21    30    29 1
    22    31    32 1
    23    18    19 2
    24    29    19 1
    25    29    28 1
    26    19    20 1
    27    32    33 1
    28    28    27 ar
    29    28    23 ar
    30    27    26 ar
    31    21    20 1
    32    20    23 1
    33    20    22 1
    34    23    24 ar
    35    26    25 ar
    36    24    25 ar
    37     1    34 1
    38     2    35 1
    39     2    36 1
    40     3    37 1
    41     3    38 1
    42     4    39 1
    43     4    40 1
    44     7    41 1
    45     8    42 1
    46     9    43 1
    47    10    44 1
    48    13    45 1
    49    13    46 1
    50    13    47 1
    51    14    48 1
    52    14    49 1
    53    14    50 1
    54    16    51 1
    55    17    52 1
    56    18    53 1
    57    21    54 1
    58    21    55 1
    59    21    56 1
    60    22    57 1
    61    22    58 1
    62    22    59 1
    63    24    60 1
    64    25    61 1
    65    26    62 1
    66    27    63 1
    67    30    64 1
    68    30    65 1
    69    31    66 1
    70    31    67 1
    71    32    68 1
    72    32    69 1
    73    33    70 1
@<TRIPOS>SUBSTRUCTURE
     1 96T         1 TEMP              0 ****  ****    0 ROOT
