@<TRIPOS>MOLECULE
molecule
   28    30     1     0     0
SMALL
bcc


@<TRIPOS>ATOM
      1 C1           0.0000     0.0000     0.0000 ca         1 96U      -0.137000
      2 C2           1.3770     0.0000     0.0000 ca         1 96U       0.103100
      3 C3           2.0880     0.0000     1.2020 ca         1 96U      -0.166000
      4 C4           1.4360     0.0000     2.4020 ca         1 96U       0.065800
      5 C5           0.0260    -0.0000     2.4350 ca         1 96U       0.457600
      6 C6          -0.6930     0.0060     1.2180 ca         1 96U      -0.187300
      7 C7          -2.1090     0.0060     1.2570 ca         1 96U       0.076800
      8 C8          -2.7230    -0.0000     2.4810 ca         1 96U      -0.298300
      9 C9          -1.9490    -0.0060     3.6470 ca         1 96U       0.718200
     10 N10         -0.6320     0.0060     3.6020 nb         1 96U      -0.750000
     11 O11          2.1450    -0.0010     3.5620 oh         1 96U      -0.498100
     12 N12         -2.5850    -0.0120     4.8820 nv         1 96U      -1.004500
     13 O13          2.0510    -0.0000    -1.1800 oh         1 96U      -0.518100
     14 N14         -2.8580     0.0120     0.0780 na         1 96U      -0.124000
     15 C15         -3.8980    -0.8270    -0.2320 cc         1 96U      -0.267600
     16 C16         -4.3320    -0.4750    -1.4570 cd         1 96U       0.317200
     17 N17         -3.5820     0.5500    -1.8890 nd         1 96U      -0.688000
     18 C18         -2.6990     0.8550    -0.9760 cc         1 96U       0.407400
     19 H1          -0.5440     0.0000    -0.9370 ha         1 96U       0.156000
     20 H2           3.1710    -0.0000     1.1830 ha         1 96U       0.153000
     21 H3          -3.8040    -0.0100     2.5470 ha         1 96U       0.149000
     22 H4           2.4720     0.8670     3.7310 ho         1 96U       0.422000
     23 H5          -3.5840     0.0050     4.9300 hn         1 96U       0.444800
     24 H6          -2.0430    -0.0180     5.7230 hn         1 96U       0.444800
     25 H7           2.2460    -0.8880    -1.4300 ho         1 96U       0.423000
     26 H8          -4.2940    -1.6210     0.3900 h4         1 96U       0.178000
     27 H9          -5.1450    -0.9410    -2.0010 h4         1 96U       0.045100
     28 H10         -1.9590     1.6430    -1.0500 h5         1 96U       0.076100
@<TRIPOS>BOND
     1    12     9 1
     2     9     8 ar
     3     9    10 ar
     4     8     7 ar
     5    15    16 2
     6    15    14 1
     7    16    17 1
     8    10     5 ar
     9    14     7 1
    10    14    18 1
    11     7     6 ar
    12    17    18 2
    13     5     6 ar
    14     5     4 ar
    15     6     1 ar
    16    11     4 1
    17     4     3 ar
    18     1     2 ar
    19     3     2 ar
    20     2    13 1
    21     1    19 1
    22     3    20 1
    23     8    21 1
    24    11    22 1
    25    12    23 1
    26    12    24 1
    27    13    25 1
    28    15    26 1
    29    16    27 1
    30    18    28 1
@<TRIPOS>SUBSTRUCTURE
     1 96U         1 TEMP              0 ****  ****    0 ROOT
