@<TRIPOS>MOLECULE
96U
   28    30     1     0     0
SMALL
bcc


@<TRIPOS>ATOM
      1 C1           0.0000     0.0000     0.0000 ca         1 96U      -0.153000
      2 C2           1.3770     0.0000     0.0000 ca         1 96U       0.141100
      3 C3           2.0880     0.0000     1.2020 ca         1 96U      -0.169000
      4 C4           1.4360     0.0000     2.4020 ca         1 96U       0.089800
      5 C5           0.0260    -0.0000     2.4350 ca         1 96U       0.398600
      6 C6          -0.6930     0.0060     1.2180 ca         1 96U      -0.158300
      7 C7          -2.1090     0.0060     1.2570 ca         1 96U      -0.103200
      8 C8          -2.7230    -0.0000     2.4810 ca         1 96U      -0.250300
      9 C9          -1.9490    -0.0060     3.6470 ca         1 96U       0.506200
     10 N10         -0.6320     0.0060     3.6020 nb         1 96U      -0.629000
     11 O11          2.1450    -0.0010     3.5620 oh         1 96U      -0.481100
     12 N12         -2.5850    -0.0120     4.8820 nv         1 96U      -0.521500
     13 O13          2.0510    -0.0000    -1.1800 oh         1 96U      -0.498100
     14 N14         -2.8580     0.0120     0.0780 na         1 96U       0.402000
     15 C15         -3.8980    -0.8270    -0.2320 cc         1 96U      -0.441600
     16 C16         -4.3320    -0.4750    -1.4570 cd         1 96U       0.328200
     17 N17         -3.5820     0.5500    -1.8890 nd         1 96U      -0.614000
     18 C18         -2.6990     0.8550    -0.9760 cc         1 96U       0.214400
     19 H1          -0.5440     0.0000    -0.9370 ha         1 96U       0.136000
     20 H2           3.1710    -0.0000     1.1830 ha         1 96U       0.126000
     21 H3          -3.8040    -0.0100     2.5470 ha         1 96U       0.127000
     22 H4           2.4720     0.8670     3.7310 ho         1 96U       0.405000
     23 H5          -3.5840     0.0050     4.9300 hn         1 96U       0.273300
     24 H6          -2.0430    -0.0180     5.7230 hn         1 96U       0.273300
     25 H7           2.2460    -0.8880    -1.4300 ho         1 96U       0.406000
     26 H8          -4.2940    -1.6210     0.3900 h4         1 96U       0.155000
     27 H9          -5.1450    -0.9410    -2.0010 h4         1 96U       0.003100
     28 H10         -1.9590     1.6430    -1.0500 h5         1 96U       0.034100
@<TRIPOS>BOND
     1     1     2 ar  
     2     1     6 ar  
     3     1    19 1   
     4     2     3 ar  
     5     2    13 1   
     6     3     4 ar  
     7     3    20 1   
     8     4     5 ar  
     9     4    11 1   
    10     5     6 ar  
    11     5    10 ar  
    12     6     7 ar  
    13     7     8 ar  
    14     7    14 1   
    15     8     9 ar  
    16     8    21 1   
    17     9    10 ar  
    18     9    12 1   
    19    11    22 1   
    20    12    23 1   
    21    12    24 1   
    22    13    25 1   
    23    14    15 1   
    24    14    18 1   
    25    15    16 2   
    26    15    26 1   
    27    16    17 1   
    28    16    27 1   
    29    17    18 2   
    30    18    28 1   
@<TRIPOS>SUBSTRUCTURE
     1 96U         1 TEMP              0 ****  ****    0 ROOT
