@<TRIPOS>MOLECULE
96V
   64    67     1     0     0
SMALL
bcc


@<TRIPOS>ATOM
      1 C4           0.0000     0.0000     0.0000 cc         1 96V      -0.039800
      2 C14          2.4430    -1.4210     4.0580 c2         1 96V      -0.175200
      3 C5           1.4720     0.0000     0.0000 cc         1 96V      -0.154400
      4 C6           2.1250     0.0000     1.1990 cd         1 96V      -0.142400
      5 C8           0.0950     0.0020     2.4150 c          1 96V       0.654100
      6 C10         -0.6670     0.0010     1.2290 cd         1 96V      -0.407900
      7 C3          -0.9860    -0.0040    -1.0020 cc         1 96V      -0.164000
      8 C15          3.6670    -1.8230     4.2980 c2         1 96V      -0.146000
      9 C16          2.2230    -0.0020    -1.2650 c          1 96V       0.627300
     10 C19          2.6620     2.3730    -0.9430 c3         1 96V       0.069300
     11 C2          -2.1920    -0.0000    -0.3930 cd         1 96V      -0.298600
     12 C20          3.4120     1.1640    -3.0440 c3         1 96V       0.015700
     13 C21          2.6960     2.1550    -3.9670 c3         1 96V      -0.042900
     14 C22          3.4280     2.2140    -5.3090 c3         1 96V       0.146800
     15 C24          5.5390     1.6750    -4.2480 c3         1 96V       0.146800
     16 C25          4.8700     1.6000    -2.8730 c3         1 96V      -0.042900
     17 C26          5.5130     2.8360    -6.3720 c3         1 96V       0.189800
     18 C27          4.7920     3.9180    -7.1780 c3         1 96V      -0.002100
     19 C28          6.9330     3.2680    -6.1090 ca         1 96V      -0.096300
     20 C29          7.2080     4.1570    -5.0870 ca         1 96V      -0.092000
     21 C30          8.5100     4.5520    -4.8470 ca         1 96V      -0.103500
     22 C31          9.5370     4.0580    -5.6280 ca         1 96V      -0.102000
     23 C32          9.2630     3.1680    -6.6490 ca         1 96V      -0.103500
     24 C33          7.9610     2.7700    -6.8870 ca         1 96V      -0.092000
     25 N11         -2.0160     0.0030     0.9570 na         1 96V       0.482900
     26 N18          2.7500     1.1450    -1.7370 n          1 96V      -0.148800
     27 N23          4.8180     2.6350    -5.0930 n3         1 96V      -0.540600
     28 N7           1.4380     0.0010     2.3670 n          1 96V       0.110000
     29 O17          2.3690    -1.0380    -1.8850 o          1 96V      -0.641100
     30 O9          -0.4710     0.0020     3.4950 o          1 96V      -0.725500
     31 H1           1.6150    -2.1100     4.1700 ha         1 96V       0.121000
     32 H2           3.2080    -0.0010     1.2170 h4         1 96V       0.132000
     33 H3           3.1330     0.5100     3.4830 h1         1 96V       0.044200
     34 H4           1.6130     0.5120     4.3880 h1         1 96V       0.044200
     35 H5          -0.8120    -0.0930    -2.0670 ha         1 96V       0.137000
     36 H6          -3.7350    -0.9960    -1.4690 hc         1 96V       0.008367
     37 H7          -4.3000     0.2980    -0.4020 hc         1 96V       0.008367
     38 H8          -3.4940     0.6960    -1.9260 hc         1 96V       0.008367
     39 H9           4.4950    -1.1330     4.1850 ha         1 96V       0.085000
     40 H10          3.8510    -2.8440     4.6080 ha         1 96V       0.085000
     41 H11          3.0070     3.2120    -1.5360 h1         1 96V       0.013033
     42 H13          1.6330     2.5390    -0.6480 h1         1 96V       0.013033
     43 H14          3.2800     2.2770    -0.0590 h1         1 96V       0.013033
     44 H15          3.3810     0.1750    -3.4850 h1         1 96V       0.073700
     45 H16          1.6760     1.8260    -4.1270 hc         1 96V       0.025450
     46 H17          2.6970     3.1380    -3.5120 hc         1 96V       0.025450
     47 H18          3.4170     1.2320    -5.7680 h1         1 96V       0.018200
     48 H19          2.9330     2.9260    -5.9580 h1         1 96V       0.018200
     49 H20          5.5140     0.6970    -4.7140 h1         1 96V       0.018200
     50 H21          6.5660     1.9990    -4.1310 h1         1 96V       0.018200
     51 H22          5.3920     0.8770    -2.2580 hc         1 96V       0.025450
     52 H23          4.9020     2.5750    -2.4030 hc         1 96V       0.025450
     53 H24          5.5150     1.9090    -6.9320 h1         1 96V       0.012700
     54 H25          4.4010     4.6700    -6.5040 hc         1 96V       0.011700
     55 H26          3.9760     3.4710    -7.7330 hc         1 96V       0.011700
     56 H27          5.4890     4.3790    -7.8680 hc         1 96V       0.011700
     57 H28          6.4020     4.5440    -4.4750 ha         1 96V       0.113500
     58 H29          8.7250     5.2500    -4.0460 ha         1 96V       0.102500
     59 H30         10.5580     4.3690    -5.4400 ha         1 96V       0.102000
     60 H31         10.0690     2.7790    -7.2590 ha         1 96V       0.102500
     61 H32          7.7460     2.0720    -7.6870 ha         1 96V       0.113500
     62 H12         -2.7480     0.0060     1.6390 hn         1 96V       0.117700
     63 C13          2.1880     0.0000     3.6260 c3         1 96V       0.053200
     64 C1          -3.5240    -0.0010    -1.0970 c3         1 96V       0.106200
@<TRIPOS>BOND
     1     1     3 1   
     2     1     6 2   
     3     1     7 1   
     4     2     8 2   
     5     2    31 1   
     6     2    63 1   
     7     3     4 2   
     8     3     9 1   
     9     4    28 1   
    10     4    32 1   
    11     5     6 1   
    12     5    28 1   
    13     5    30 2   
    14     6    25 1   
    15     7    11 2   
    16     7    35 1   
    17     8    39 1   
    18     8    40 1   
    19     9    26 1   
    20     9    29 2   
    21    10    26 1   
    22    10    41 1   
    23    10    42 1   
    24    10    43 1   
    25    11    25 1   
    26    11    64 1   
    27    12    13 1   
    28    12    16 1   
    29    12    26 1   
    30    12    44 1   
    31    13    14 1   
    32    13    45 1   
    33    13    46 1   
    34    14    27 1   
    35    14    47 1   
    36    14    48 1   
    37    15    16 1   
    38    15    27 1   
    39    15    49 1   
    40    15    50 1   
    41    16    51 1   
    42    16    52 1   
    43    17    18 1   
    44    17    19 1   
    45    17    27 1   
    46    17    53 1   
    47    18    54 1   
    48    18    55 1   
    49    18    56 1   
    50    19    20 ar  
    51    19    24 ar  
    52    20    21 ar  
    53    20    57 1   
    54    21    22 ar  
    55    21    58 1   
    56    22    23 ar  
    57    22    59 1   
    58    23    24 ar  
    59    23    60 1   
    60    24    61 1   
    61    25    62 1   
    62    28    63 1   
    63    33    63 1   
    64    34    63 1   
    65    36    64 1   
    66    37    64 1   
    67    38    64 1   
@<TRIPOS>SUBSTRUCTURE
     1 96V         1 TEMP              0 ****  ****    0 ROOT
