@<TRIPOS>MOLECULE
molecule
   64    67     1     0     0
SMALL
bcc


@<TRIPOS>ATOM
      1 C4           0.0000     0.0000     0.0000 cc         1 96V      -0.037800
      2 C14          2.4430    -1.4210     4.0580 c2         1 96V      -0.191200
      3 C5           1.4720     0.0000     0.0000 cc         1 96V      -0.173400
      4 C6           2.1250     0.0000     1.1990 cd         1 96V       0.001600
      5 C8           0.0950     0.0020     2.4150 c          1 96V       0.730100
      6 C10         -0.6670     0.0010     1.2290 cd         1 96V      -0.195900
      7 C3          -0.9860    -0.0040    -1.0020 cd         1 96V      -0.200000
      8 C15          3.6670    -1.8230     4.2980 c2         1 96V      -0.209000
      9 C16          2.2230    -0.0020    -1.2650 c          1 96V       0.692300
     10 C19          2.6620     2.3730    -0.9430 c3         1 96V       0.093300
     11 C2          -2.1920    -0.0000    -0.3930 cc         1 96V      -0.071600
     12 C20          3.4120     1.1640    -3.0440 c3         1 96V       0.109700
     13 C21          2.6960     2.1550    -3.9670 c3         1 96V      -0.091900
     14 C22          3.4280     2.2140    -5.3090 c3         1 96V       0.161800
     15 C24          5.5390     1.6750    -4.2480 c3         1 96V       0.161800
     16 C25          4.8700     1.6000    -2.8730 c3         1 96V      -0.091900
     17 C26          5.5130     2.8360    -6.3720 c3         1 96V       0.217800
     18 C27          4.7920     3.9180    -7.1780 c3         1 96V      -0.087100
     19 C28          6.9330     3.2680    -6.1090 ca         1 96V      -0.086300
     20 C29          7.2080     4.1570    -5.0870 ca         1 96V      -0.117000
     21 C30          8.5100     4.5520    -4.8470 ca         1 96V      -0.132500
     22 C31          9.5370     4.0580    -5.6280 ca         1 96V      -0.129000
     23 C32          9.2630     3.1680    -6.6490 ca         1 96V      -0.132500
     24 C33          7.9610     2.7700    -6.8870 ca         1 96V      -0.117000
     25 N11         -2.0160     0.0030     0.9570 na         1 96V      -0.119100
     26 N18          2.7500     1.1450    -1.7370 n          1 96V      -0.487800
     27 N23          4.8180     2.6350    -5.0930 n3         1 96V      -0.732600
     28 N7           1.4380     0.0010     2.3670 n          1 96V      -0.321000
     29 O17          2.3690    -1.0380    -1.8850 o          1 96V      -0.598100
     30 O9          -0.4710     0.0020     3.4950 o          1 96V      -0.670500
     31 H1           1.6150    -2.1100     4.1700 ha         1 96V       0.145000
     32 H2           3.2080    -0.0010     1.2170 h4         1 96V       0.160000
     33 H3           3.1330     0.5100     3.4830 h1         1 96V       0.073200
     34 H4           1.6130     0.5120     4.3890 h1         1 96V       0.073200
     35 H5          -0.8120    -0.0970    -2.0670 ha         1 96V       0.161000
     36 H6          -4.3000    -0.2940    -0.4010 hc         1 96V       0.051367
     37 H7          -3.7330     0.9930    -1.4740 hc         1 96V       0.051367
     38 H8          -3.4960    -0.7010    -1.9230 hc         1 96V       0.051367
     39 H9           3.8510    -2.8440     4.6080 ha         1 96V       0.115000
     40 H10          4.4950    -1.1330     4.1850 ha         1 96V       0.115000
     41 H11          3.0030     3.2120    -1.5370 h1         1 96V       0.041367
     42 H13          1.6330     2.5370    -0.6450 h1         1 96V       0.041367
     43 H14          3.2830     2.2790    -0.0610 h1         1 96V       0.041367
     44 H15          3.3810     0.1750    -3.4850 h1         1 96V       0.093700
     45 H16          1.6760     1.8260    -4.1270 hc         1 96V       0.052700
     46 H17          2.6970     3.1380    -3.5120 hc         1 96V       0.052700
     47 H18          3.4170     1.2320    -5.7680 h1         1 96V       0.041200
     48 H19          2.9330     2.9260    -5.9580 h1         1 96V       0.041200
     49 H20          6.5660     1.9990    -4.1310 h1         1 96V       0.041200
     50 H21          5.5140     0.6970    -4.7140 h1         1 96V       0.041200
     51 H22          5.3920     0.8770    -2.2580 hc         1 96V       0.052700
     52 H23          4.9020     2.5750    -2.4030 hc         1 96V       0.052700
     53 H24          5.5150     1.9090    -6.9320 h1         1 96V       0.030700
     54 H25          4.4020     4.6710    -6.5040 hc         1 96V       0.042700
     55 H26          3.9750     3.4710    -7.7320 hc         1 96V       0.042700
     56 H27          5.4880     4.3780    -7.8690 hc         1 96V       0.042700
     57 H28          6.4020     4.5440    -4.4750 ha         1 96V       0.138500
     58 H29          8.7250     5.2500    -4.0460 ha         1 96V       0.129000
     59 H30         10.5580     4.3690    -5.4400 ha         1 96V       0.128000
     60 H31         10.0690     2.7790    -7.2590 ha         1 96V       0.129000
     61 H32          7.7460     2.0720    -7.6870 ha         1 96V       0.138500
     62 H12         -2.7480     0.0060     1.6390 hn         1 96V       0.311700
     63 C13          2.1880     0.0000     3.6260 c3         1 96V       0.127200
     64 C1          -3.5240    -0.0010    -1.0970 c3         1 96V      -0.026800
@<TRIPOS>BOND
     1    64    11 1
     2    11    25 1
     3    11     7 2
     4    25     6 1
     5     7     1 1
     6     6     5 1
     7     6     1 2
     8    30     5 2
     9     5    28 1
    10     1     3 1
    11    28     4 1
    12    28    63 1
    13     3     4 2
    14     3     9 1
    15    63     2 1
    16     8     2 2
    17     9    29 2
    18     9    26 1
    19    10    26 1
    20    26    12 1
    21    13    12 1
    22    13    14 1
    23    12    16 1
    24    14    27 1
    25    16    15 1
    26    27    15 1
    27    27    17 1
    28    20    21 ar
    29    20    19 ar
    30    21    22 ar
    31    17    19 1
    32    17    18 1
    33    19    24 ar
    34    22    23 ar
    35    24    23 ar
    36     2    31 1
    37     4    32 1
    38    63    33 1
    39    63    34 1
    40     7    35 1
    41    64    36 1
    42    64    37 1
    43    64    38 1
    44     8    39 1
    45     8    40 1
    46    10    41 1
    47    10    42 1
    48    10    43 1
    49    12    44 1
    50    13    45 1
    51    13    46 1
    52    14    47 1
    53    14    48 1
    54    15    49 1
    55    15    50 1
    56    16    51 1
    57    16    52 1
    58    17    53 1
    59    18    54 1
    60    18    55 1
    61    18    56 1
    62    20    57 1
    63    21    58 1
    64    22    59 1
    65    23    60 1
    66    24    61 1
    67    25    62 1
@<TRIPOS>SUBSTRUCTURE
     1 96V         1 TEMP              0 ****  ****    0 ROOT
