@<TRIPOS>MOLECULE
96X
   35    37     1     0     0
SMALL
bcc


@<TRIPOS>ATOM
      1 C1           0.0000     0.0000     0.0000 ca         1 96X      -0.129000
      2 C2           1.3620     0.0000     0.0000 ca         1 96X      -0.063000
      3 C3           2.0770     0.0000     1.1950 ca         1 96X      -0.164000
      4 C4           1.4340     0.0010     2.4000 ca         1 96X       0.103800
      5 C5           0.0240     0.0020     2.4380 ca         1 96X       0.372600
      6 C6          -0.6970     0.0070     1.2200 ca         1 96X      -0.133300
      7 C7          -2.1050     0.0080     1.2550 ca         1 96X      -0.072300
      8 C8          -2.7200     0.0040     2.4730 ca         1 96X      -0.220300
      9 C9          -1.9490    -0.0020     3.6430 ca         1 96X       0.349200
     10 N10         -0.6330     0.0030     3.6020 nb         1 96X      -0.512000
     11 O11          2.1480     0.0000     3.5560 oh         1 96X      -0.465100
     12 N12         -2.5910    -0.0060     4.8790 ns         1 96X      -0.122400
     13 C13         -2.9120     0.0150    -0.0170 c3         1 96X       0.017600
     14 N14         -3.0730    -1.3590    -0.5010 na         1 96X       0.286100
     15 C15         -4.0760    -2.2060    -0.1860 cc         1 96X       0.221400
     16 N16         -3.8790    -3.3370    -0.8080 nd         1 96X      -0.619000
     17 C17         -2.7540    -3.2520    -1.5340 cd         1 96X       0.328200
     18 C18         -2.2380    -2.0210    -1.3600 cc         1 96X      -0.437600
     19 C19         -1.8690    -0.1160     6.0120 c          1 96X       0.536100
     20 O20         -0.6570    -0.1180     5.9610 o          1 96X      -0.558100
     21 C21         -2.5670    -0.2370     7.3420 c3         1 96X      -0.069100
     22 H1          -0.5440     0.0000    -0.9370 ha         1 96X       0.112000
     23 H2           1.8970    -0.0000    -0.9420 ha         1 96X       0.103000
     24 H3           3.1600    -0.0000     1.1680 ha         1 96X       0.116000
     25 H4          -3.8010    -0.0010     2.5360 ha         1 96X       0.114000
     26 H5           2.6060     0.8200     3.6420 ho         1 96X       0.403000
     27 H6          -3.5890     0.0430     4.9240 hn         1 96X       0.168500
     28 H7          -2.3990     0.6040    -0.7670 h1         1 96X       0.042200
     29 H8          -3.8870     0.4460     0.1760 h1         1 96X       0.042200
     30 H9          -4.9060    -1.9840     0.4730 h5         1 96X       0.019100
     31 H10         -2.3370    -4.0350    -2.1560 h4         1 96X       0.003100
     32 H11         -1.3320    -1.6310    -1.8090 h4         1 96X       0.156000
     33 H12         -3.1820    -1.1290     7.3470 hc         1 96X       0.023367
     34 H13         -3.1920     0.6340     7.5020 hc         1 96X       0.023367
     35 H14         -1.8300    -0.3020     8.1330 hc         1 96X       0.023367
@<TRIPOS>BOND
     1     1     2 ar  
     2     1     6 ar  
     3     1    22 1   
     4     2     3 ar  
     5     2    23 1   
     6     3     4 ar  
     7     3    24 1   
     8     4     5 ar  
     9     4    11 1   
    10     5     6 ar  
    11     5    10 ar  
    12     6     7 ar  
    13     7     8 ar  
    14     7    13 1   
    15     8     9 ar  
    16     8    25 1   
    17     9    10 ar  
    18     9    12 1   
    19    11    26 1   
    20    12    19 1   
    21    12    27 1   
    22    13    14 1   
    23    13    28 1   
    24    13    29 1   
    25    14    15 1   
    26    14    18 1   
    27    15    16 2   
    28    15    30 1   
    29    16    17 1   
    30    17    18 2   
    31    17    31 1   
    32    18    32 1   
    33    19    20 2   
    34    19    21 1   
    35    21    33 1   
    36    21    34 1   
    37    21    35 1   
@<TRIPOS>SUBSTRUCTURE
     1 96X         1 TEMP              0 ****  ****    0 ROOT
