@<TRIPOS>MOLECULE
molecule
   35    37     1     0     0
SMALL
bcc


@<TRIPOS>ATOM
      1 C1           0.0000     0.0000     0.0000 ca         1 96X      -0.131000
      2 C2           1.3620     0.0000     0.0000 ca         1 96X      -0.109000
      3 C3           2.0770     0.0000     1.1950 ca         1 96X      -0.169000
      4 C4           1.4340     0.0010     2.4000 ca         1 96X       0.084800
      5 C5           0.0240     0.0020     2.4380 ca         1 96X       0.433600
      6 C6          -0.6970     0.0070     1.2200 ca         1 96X      -0.153300
      7 C7          -2.1050     0.0080     1.2550 ca         1 96X      -0.052300
      8 C8          -2.7200     0.0040     2.4730 ca         1 96X      -0.257300
      9 C9          -1.9490    -0.0020     3.6430 ca         1 96X       0.554200
     10 N10         -0.6330     0.0030     3.6020 nb         1 96X      -0.649000
     11 O11          2.1480     0.0000     3.5560 oh         1 96X      -0.485100
     12 N12         -2.5910    -0.0060     4.8790 ns         1 96X      -0.557400
     13 C13         -2.9120     0.0150    -0.0170 c3         1 96X       0.090600
     14 N14         -3.0730    -1.3590    -0.5010 na         1 96X      -0.187900
     15 C15         -4.0760    -2.2060    -0.1860 cc         1 96X       0.395400
     16 N16         -3.8790    -3.3370    -0.8080 nc         1 96X      -0.694000
     17 C17         -2.7540    -3.2520    -1.5340 cc         1 96X       0.315200
     18 C18         -2.2380    -2.0210    -1.3600 cd         1 96X      -0.275600
     19 C19         -1.8690    -0.1160     6.0120 c          1 96X       0.639100
     20 O20         -0.6570    -0.1180     5.9610 o          1 96X      -0.515100
     21 C21         -2.5670    -0.2370     7.3420 c3         1 96X      -0.171100
     22 H1          -0.5440     0.0000    -0.9370 ha         1 96X       0.130000
     23 H2           1.8970    -0.0000    -0.9420 ha         1 96X       0.133000
     24 H3           3.1600    -0.0000     1.1680 ha         1 96X       0.143000
     25 H4          -3.8010    -0.0010     2.5360 ha         1 96X       0.133000
     26 H5           2.6060     0.8200     3.6420 ho         1 96X       0.421000
     27 H6          -3.5890     0.0430     4.9240 hn         1 96X       0.327500
     28 H7          -2.3990     0.6040    -0.7670 h1         1 96X       0.072200
     29 H8          -3.8870     0.4460     0.1760 h1         1 96X       0.072200
     30 H9          -4.9060    -1.9840     0.4730 h5         1 96X       0.060100
     31 H10         -2.3370    -4.0350    -2.1560 h4         1 96X       0.042100
     32 H11         -1.3320    -1.6310    -1.8090 h4         1 96X       0.173000
     33 H12         -3.1820    -1.1290     7.3470 hc         1 96X       0.062700
     34 H13         -3.1920     0.6340     7.5020 hc         1 96X       0.062700
     35 H14         -1.8300    -0.3020     8.1330 hc         1 96X       0.062700
@<TRIPOS>BOND
     1    21    19 1
     2    17    18 2
     3    17    16 1
     4    20    19 2
     5    19    12 1
     6    18    14 1
     7    16    15 2
     8    12     9 1
     9    14    15 1
    10    14    13 1
    11     8     9 ar
    12     8     7 ar
    13     9    10 ar
    14    13     7 1
    15     7     6 ar
    16    10     5 ar
    17     6     5 ar
    18     6     1 ar
    19     5     4 ar
    20    11     4 1
    21     4     3 ar
    22     1     2 ar
    23     3     2 ar
    24     1    22 1
    25     2    23 1
    26     3    24 1
    27     8    25 1
    28    11    26 1
    29    12    27 1
    30    13    28 1
    31    13    29 1
    32    15    30 1
    33    17    31 1
    34    18    32 1
    35    21    33 1
    36    21    34 1
    37    21    35 1
@<TRIPOS>SUBSTRUCTURE
     1 96X         1 TEMP              0 ****  ****    0 ROOT
