@<TRIPOS>MOLECULE
molecule
   49    53     1     0     0
SMALL
bcc


@<TRIPOS>ATOM
      1 C9           0.0000     0.0000     0.0000 ca         1 96Y      -0.197300
      2 C2          -4.1500     0.0190     0.1080 ca         1 96Y       0.303300
      3 C10          1.3910     0.0000     0.0000 ca         1 96Y       0.016800
      4 C6          -2.1510     0.0130     1.2320 cp         1 96Y       0.256000
      5 C3          -4.8280     0.0130     1.3150 ca         1 96Y       0.298900
      6 N4          -4.1580     0.0080     2.4550 nb         1 96Y      -0.654000
      7 C5          -2.8380     0.0070     2.4470 ca         1 96Y       0.329900
      8 N7          -2.8300     0.0120     0.0890 nb         1 96Y      -0.654000
      9 C8          -0.6680     0.0070     1.2160 cp         1 96Y       0.388300
     10 C11          2.0620     0.0000     1.2430 ca         1 96Y      -0.378200
     11 C12          1.3100     0.0000     2.4210 ca         1 96Y       0.490200
     12 N13         -0.0030     0.0060     2.3700 nb         1 96Y      -0.714000
     13 C14          3.4880    -0.0020     0.9360 cc         1 96Y       0.401800
     14 N15          3.6170    -0.0010    -0.3610 nd         1 96Y      -0.489100
     15 N16          2.3570    -0.0000    -0.9700 na         1 96Y       0.044100
     16 C17          2.1230    -0.0010    -2.3460 ca         1 96Y       0.559800
     17 C18          3.0870     0.5080    -3.2080 ca         1 96Y      -0.242300
     18 C19          2.8420     0.5020    -4.5710 ca         1 96Y      -0.076000
     19 C20          1.6370    -0.0160    -5.0250 ca         1 96Y      -0.254300
     20 C21          0.7250    -0.5070    -4.1100 ca         1 96Y       0.451600
     21 N22          0.9880    -0.4920    -2.8180 nb         1 96Y      -0.705000
     22 C23         -0.5850    -1.0710    -4.5960 c3         1 96Y      -0.152000
     23 C24         -1.0580    -0.2850    -5.8210 c3         1 96Y       0.159800
     24 N25         -2.3240    -0.8470    -6.3080 n7         1 96Y      -0.821200
     25 C26         -2.1580    -2.2450    -6.7270 c3         1 96Y       0.154800
     26 C27         -1.7180    -3.0900    -5.5300 c3         1 96Y      -0.117400
     27 C28         -0.3980    -2.5410    -4.9810 c3         1 96Y       0.408600
     28 F29          0.5960    -2.6440    -5.9610 f          1 96Y      -0.232800
     29 F30         -0.0200    -3.2750    -3.8530 f          1 96Y      -0.232800
     30 H1          -0.5420     0.2000    -0.9170 ha         1 96Y       0.180000
     31 H2          -4.3830     0.6100    -1.9240 hc         1 96Y       0.054367
     32 H3          -5.8990     0.4610    -1.0230 hc         1 96Y       0.054367
     33 H4          -5.0340    -0.9910    -1.5450 hc         1 96Y       0.054367
     34 H5          -5.9110     0.0130     1.3260 h4         1 96Y       0.031100
     35 H6          -2.2900     0.0050     3.3810 h4         1 96Y       0.056100
     36 H7           1.8120    -0.0000     3.3810 h4         1 96Y       0.028100
     37 H8           4.2960    -0.0020     1.6580 h4         1 96Y       0.069800
     38 H9           4.0160     0.9050    -2.8190 ha         1 96Y       0.161000
     39 H10          3.5740     0.8930    -5.2670 ha         1 96Y       0.146000
     40 H11          1.4130    -0.0340    -6.0850 ha         1 96Y       0.148000
     41 H12         -1.3290    -0.9970    -3.8120 hc         1 96Y       0.112700
     42 H13         -1.2070     0.7530    -5.5470 h1         1 96Y       0.046700
     43 H14         -0.3100    -0.3530    -6.6020 h1         1 96Y       0.046700
     44 H15         -2.6550    -0.3040    -7.0800 hn         1 96Y       0.363800
     45 H17         -3.1010    -2.6210    -7.1060 h1         1 96Y       0.044700
     46 H18         -1.4040    -2.3000    -7.5030 h1         1 96Y       0.044700
     47 H19         -1.5780    -4.1160    -5.8450 hc         1 96Y       0.076700
     48 H20         -2.4760    -3.0430    -4.7580 hc         1 96Y       0.076700
     49 C1          -4.9210     0.0250    -1.1870 c3         1 96Y      -0.137400
@<TRIPOS>BOND
     1    11    12 ar
     2    11    10 ar
     3    12     9 ar
     4    13    10 1
     5    13    14 2
     6    10     3 ar
     7     7     6 ar
     8     7     4 ar
     9     6     5 ar
    10     9     4 1
    11     9     1 ar
    12    14    15 1
    13     4     8 ar
    14     3     1 ar
    15     3    15 1
    16     5     2 ar
    17    15    16 1
    18     8     2 ar
    19     2    49 1
    20    16    17 ar
    21    16    21 ar
    22    17    18 ar
    23    21    20 ar
    24    18    19 ar
    25    20    19 ar
    26    20    22 1
    27    23    22 1
    28    23    24 1
    29    28    27 1
    30    22    27 1
    31    24    25 1
    32    27    29 1
    33    27    26 1
    34    25    26 1
    35     1    30 1
    36    49    31 1
    37    49    32 1
    38    49    33 1
    39     5    34 1
    40     7    35 1
    41    11    36 1
    42    13    37 1
    43    17    38 1
    44    18    39 1
    45    19    40 1
    46    22    41 1
    47    23    42 1
    48    23    43 1
    49    24    44 1
    50    25    45 1
    51    25    46 1
    52    26    47 1
    53    26    48 1
@<TRIPOS>SUBSTRUCTURE
     1 96Y         1 TEMP              0 ****  ****    0 ROOT
