@<TRIPOS>MOLECULE
molecule
   31    32     1     0     0
SMALL
bcc


@<TRIPOS>ATOM
      1 C11          0.0000     0.0000     0.0000 ce         1 96Z      -0.060000
      2 C14          0.7430     1.0720     2.9330 c3         1 96Z       0.002000
      3 C1          -2.5110     0.3130    -2.2380 c3         1 96Z      -0.013500
      4 C10          1.4880     0.0000     0.0000 ce         1 96Z      -0.052000
      5 C12         -0.8230     0.7930     0.9400 ce         1 96Z      -0.144000
      6 C13         -0.4790     1.1280     2.1370 c2         1 96Z      -0.127200
      7 C15          1.9660     0.5150     2.3610 c2         1 96Z      -0.153200
      8 C16          2.3120     0.0000     1.2310 ce         1 96Z      -0.105000
      9 C3          -3.9050    -0.0590    -2.6730 c          1 96Z       0.868600
     10 C6          -1.8900    -0.8540    -1.4680 c3         1 96Z      -0.024200
     11 C7          -0.4540    -0.5310    -1.1390 c2         1 96Z      -0.165400
     12 C8           0.7440    -0.7440    -2.0350 c3         1 96Z      -0.026000
     13 C9           1.9430    -0.3300    -1.2120 c2         1 96Z      -0.173200
     14 N17         -2.5690     1.4970    -1.3700 nz         1 96Z      -0.796600
     15 H14          0.5170     0.4970     3.8230 hc         1 96Z       0.069200
     16 H2           0.9690     2.0850     3.2420 hc         1 96Z       0.069200
     17 H1          -1.9070     0.5330    -3.1100 hx         1 96Z       0.104700
     18 H12         -1.7960     1.1190     0.5940 ha         1 96Z       0.080000
     19 H13         -1.3830     1.0210     2.7240 ha         1 96Z       0.121000
     20 H15          2.7900     0.5420     3.0640 ha         1 96Z       0.110000
     21 H16          3.2850    -0.4720     1.1770 ha         1 96Z       0.133000
     22 H62         -2.4420    -1.0170    -0.5500 hc         1 96Z       0.093700
     23 H61         -1.9280    -1.7500    -2.0760 hc         1 96Z       0.093700
     24 H8           0.8230    -1.7890    -2.3100 hc         1 96Z       0.082700
     25 H3           0.6650    -0.1220    -2.9180 hc         1 96Z       0.082700
     26 H9           2.8800    -0.8650    -1.3120 ha         1 96Z       0.155000
     27 H172        -1.6410     1.8290    -1.1970 hn         1 96Z       0.442467
     28 H171        -3.1020     2.2140    -1.8190 hn         1 96Z       0.442467
     29 O5          -4.0870    -0.8280    -3.7580 o          1 96Z      -0.777300
     30 H173        -3.0030     1.2530    -0.5020 hn         1 96Z       0.442467
     31 O4          -4.8590     0.3350    -2.0450 o          1 96Z      -0.777300
@<TRIPOS>BOND
     1     6     2 1
     2     6     5 2
     3     2     7 1
     4     5     1 1
     5     7     8 2
     6     1    11 2
     7     1     4 1
     8    10    11 1
     9    10     3 1
    10     8     4 1
    11    11    12 1
    12     4    13 2
    13    31     9 1
    14    14     3 1
    15     9    29 1
    16     9     3 1
    17    12    13 1
    18     2    15 1
    19     2    16 1
    20     3    17 1
    21     5    18 1
    22     6    19 1
    23     7    20 1
    24     8    21 1
    25    10    22 1
    26    10    23 1
    27    12    24 1
    28    12    25 1
    29    13    26 1
    30    14    27 1
    31    14    28 1
    32    30    14 1
@<TRIPOS>SUBSTRUCTURE
     1 96Z         1 TEMP              0 ****  ****    0 ROOT
