@<TRIPOS>MOLECULE
molecule
   53    57     1     0     0
SMALL
bcc


@<TRIPOS>ATOM
      1 C7           0.0000     0.0000     0.0000 c          1 971       0.703500
      2 C9          -0.6660    -0.1850     3.6110 ca         1 971       0.554200
      3 N2           1.3380     0.0000     0.0000 n          1 971      -0.483800
      4 C10         -1.8660    -0.8490     3.7980 ca         1 971      -0.171300
      5 C4           1.2710     0.4480     2.4080 c3         1 971       0.151800
      6 N5           0.0250    -0.3440     2.4090 nh         1 971      -0.693300
      7 C6          -0.8120     0.0370     1.2640 c3         1 971       0.096800
      8 C1           2.0370    -0.0000    -1.2880 c3         1 971       0.101300
      9 C3           2.1320     0.0000     1.2250 c3         1 971       0.105000
     10 O8          -0.5810    -0.0260    -1.0640 o          1 971      -0.653500
     11 C11         -2.5450    -0.6720     5.0060 ca         1 971      -0.173900
     12 C12         -1.9780     0.1730     5.9830 ca         1 971      -0.170500
     13 C13         -0.7680     0.7980     5.7070 ca         1 971       0.423200
     14 N14         -0.1630     0.6030     4.5540 nb         1 971      -0.700000
     15 N15         -2.8350     0.1690     7.0550 na         1 971      -0.044100
     16 N17         -3.9260    -0.6600     6.7720 nc         1 971      -0.477100
     17 C18         -3.7950    -1.1780     5.5730 cd         1 971       0.314900
     18 C19         -4.7440    -2.1050     4.9130 ca         1 971       0.452000
     19 C20         -5.5820    -2.9030     5.6890 ca         1 971      -0.249300
     20 C21         -6.4650    -3.7670     5.0610 ca         1 971      -0.077000
     21 C22         -6.4830    -3.8060     3.6770 ca         1 971      -0.261300
     22 C23         -5.6190    -2.9840     2.9600 ca         1 971       0.622200
     23 N24         -4.7900    -2.1660     3.5870 nb         1 971      -0.732000
     24 N25         -5.6310    -3.0200     1.5710 nh         1 971      -0.701300
     25 C26         -4.6490    -2.0810     1.0120 c3         1 971       0.172300
     26 C27         -4.6370    -2.2070    -0.5140 c3         1 971       0.151800
     27 N28         -5.9830    -1.9310    -1.0360 n7         1 971      -0.821200
     28 C29         -6.9650    -2.8710    -0.4770 c3         1 971       0.151800
     29 C30         -6.9760    -2.7440     1.0490 c3         1 971       0.172300
     30 H1          -2.1500    -1.6530     3.1300 ha         1 971       0.166000
     31 H2           1.8090     0.2800     3.3330 h1         1 971       0.065200
     32 H3           1.0320     1.5000     2.3050 h1         1 971       0.065200
     33 H4          -1.6400    -0.6570     1.1790 h1         1 971       0.076700
     34 H5          -1.1920     1.0410     1.4160 h1         1 971       0.076700
     35 H6           3.1020    -0.1140    -1.1210 h1         1 971       0.043700
     36 H7           1.8500     0.9350    -1.8010 h1         1 971       0.043700
     37 H8           1.6780    -0.8230    -1.8940 h1         1 971       0.043700
     38 H9           2.9660     0.6820     1.1110 h1         1 971       0.050700
     39 H10          2.5030    -1.0010     1.4120 h1         1 971       0.050700
     40 H11         -0.3180     1.4500     6.4460 h4         1 971       0.023100
     41 H16         -2.7010     0.6790     7.9050 hn         1 971       0.336700
     42 H12         -5.5440    -2.8480     6.7700 ha         1 971       0.152000
     43 H13         -7.1280    -4.3980     5.6410 ha         1 971       0.142000
     44 H14         -7.1610    -4.4730     3.1570 ha         1 971       0.146000
     45 H15         -3.6650    -2.3150     1.4000 h1         1 971       0.054700
     46 H17         -4.9210    -1.0690     1.2870 h1         1 971       0.054700
     47 H18         -3.9360    -1.4920    -0.9290 h1         1 971       0.043700
     48 H19         -4.3420    -3.2120    -0.7900 h1         1 971       0.043700
     49 H20         -5.9760    -2.0100    -2.0340 hn         1 971       0.357800
     50 H22         -6.6920    -3.8820    -0.7520 h1         1 971       0.043700
     51 H23         -7.9490    -2.6370    -0.8650 h1         1 971       0.043700
     52 H24         -7.6770    -3.4580     1.4640 h1         1 971       0.054700
     53 H25         -7.2700    -1.7380     1.3240 h1         1 971       0.054700
@<TRIPOS>BOND
     1    28    27 1
     2    28    29 1
     3    27    26 1
     4    29    24 1
     5    26    25 1
     6    24    25 1
     7    24    22 1
     8    21    22 ar
     9    21    20 ar
    10    22    23 ar
    11    20    19 ar
    12    23    18 ar
    13     9     5 1
    14     9     3 1
    15     8     3 1
    16     5     6 1
    17    19    18 ar
    18     3     1 1
    19    18    17 1
    20     4     2 ar
    21     4    11 ar
    22     6     2 1
    23     6     7 1
    24     1     7 1
    25     1    10 2
    26    17    11 1
    27    17    16 2
    28     2    14 ar
    29    11    12 ar
    30    16    15 1
    31    14    13 ar
    32    12    15 1
    33    12    13 ar
    34     4    30 1
    35     5    31 1
    36     5    32 1
    37     7    33 1
    38     7    34 1
    39     8    35 1
    40     8    36 1
    41     8    37 1
    42     9    38 1
    43     9    39 1
    44    13    40 1
    45    15    41 1
    46    19    42 1
    47    20    43 1
    48    21    44 1
    49    25    45 1
    50    25    46 1
    51    26    47 1
    52    26    48 1
    53    27    49 1
    54    28    50 1
    55    28    51 1
    56    29    52 1
    57    29    53 1
@<TRIPOS>SUBSTRUCTURE
     1 971         1 TEMP              0 ****  ****    0 ROOT
