@<TRIPOS>MOLECULE
molecule
   45    47     1     0     0
SMALL
bcc


@<TRIPOS>ATOM
      1 C1           0.0000     0.0000     0.0000 ca         1 972      -0.142900
      2 C2           1.4010     0.0000     0.0000 ca         1 972       0.051400
      3 Cl2          2.2660    -0.0030    -1.5050 cl         1 972      -0.100400
      4 C3           2.0960     0.0000     1.1900 ca         1 972      -0.114000
      5 C4           1.4080     0.0010     2.3960 ca         1 972       0.001000
      6 C5           0.0000     0.0020     2.4090 ca         1 972      -0.022000
      7 C6          -0.7000     0.0010     1.2020 ca         1 972      -0.085000
      8 C7          -0.7360     0.0000    -1.2810 ce         1 972       0.049800
      9 N1          -0.5130     0.9600    -2.1780 nz         1 972      -0.669600
     10 N2          -1.6230    -0.9610    -1.5400 nv         1 972      -0.479100
     11 N3           1.8040     0.0020     3.7170 na         1 972      -0.219600
     12 N4          -0.3890    -0.0020     3.7090 nc         1 972      -0.265600
     13 C8           0.6680     0.0030     4.4830 cc         1 972       0.198500
     14 C1'          0.6380     0.0040     5.9600 cd         1 972      -0.013000
     15 C2'          1.5500     0.7800     6.6800 cd         1 972      -0.161000
     16 C3'          1.5210     0.7770     8.0580 cc         1 972      -0.007000
     17 C4'          0.5890     0.0090     8.7350 cc         1 972      -0.256000
     18 C5'         -0.3220    -0.7650     8.0350 cd         1 972       0.163100
     19 C6'         -0.2980    -0.7770     6.6440 c          1 972       0.413100
     20 O6'         -1.1890    -1.5360     5.9540 o          1 972      -0.444100
     21 O5'         -1.2340    -1.5180     8.7060 os         1 972      -0.218900
     22 C10         -1.0030    -1.3000    10.1000 c3         1 972       0.098400
     23 C20         -2.0020    -2.1220    10.9160 c3         1 972      -0.078700
     24 C30         -1.7400    -3.6130    10.6910 c3         1 972      -0.090100
     25 C40         -1.8370    -1.7950    12.4020 c3         1 972      -0.090100
     26 HC3          3.1790    -0.0170     1.1990 ha         1 972       0.161000
     27 HC6         -1.7730     0.1330     1.2630 ha         1 972       0.168000
     28 HH11         0.0100     0.5860    -2.9440 hn         1 972       0.435467
     29 HH12        -1.3880     1.3130    -2.5130 hn         1 972       0.435467
     30 HH21        -2.1220    -0.9630    -2.4070 hn         1 972       0.303200
     31 HH22        -1.7900    -1.6820    -0.8660 hn         1 972       0.303200
     32 HN3          2.7470     0.0050     4.0540 hn         1 972       0.320700
     33 HC2'         2.2810     1.3830     6.1550 ha         1 972       0.146000
     34 HC3'         2.2290     1.3800     8.6140 ha         1 972       0.158000
     35 HC4'         0.5700     0.0150     9.8180 ha         1 972       0.171000
     36 H10A         0.0060    -1.6050    10.3500 h1         1 972       0.054200
     37 H10B        -1.1290    -0.2480    10.3270 h1         1 972       0.054200
     38 H20         -3.0100    -1.8800    10.6030 hc         1 972       0.072700
     39 H30A        -2.3190    -4.1920    11.4000 hc         1 972       0.044033
     40 H30B        -2.0300    -3.8820     9.6830 hc         1 972       0.044033
     41 H30C        -0.6860    -3.8200    10.8310 hc         1 972       0.044033
     42 H40A        -2.5610    -2.3590    12.9780 hc         1 972       0.044033
     43 H40B        -0.8360    -2.0590    12.7210 hc         1 972       0.044033
     44 H40C        -1.9980    -0.7350    12.5580 hc         1 972       0.044033
     45 H13          0.0020     1.7040    -1.7500 hn         1 972       0.435467
@<TRIPOS>BOND
     1     1     2 ar
     2     1     7 ar
     3     1     8 1
     4     2     3 1
     5     2     4 ar
     6     4     5 ar
     7     4    26 1
     8     5     6 ar
     9     5    11 2
    10     6     7 ar
    11     6    12 2
    12     7    27 1
    13     8     9 1
    14     8    10 2
    15     9    28 1
    16     9    29 1
    17    10    30 1
    18    10    31 1
    19    11    13 1
    20    11    32 1
    21    12    13 1
    22    13    14 2
    23    14    15 1
    24    14    19 1
    25    15    16 2
    26    15    33 1
    27    16    17 1
    28    16    34 1
    29    17    18 2
    30    17    35 1
    31    18    19 1
    32    18    21 1
    33    19    20 2
    34    21    22 1
    35    22    23 1
    36    22    36 1
    37    22    37 1
    38    23    24 1
    39    23    25 1
    40    23    38 1
    41    24    39 1
    42    24    40 1
    43    24    41 1
    44    25    42 1
    45    25    43 1
    46    25    44 1
    47    45     9 1
@<TRIPOS>SUBSTRUCTURE
     1 972         1 TEMP              0 ****  ****    0 ROOT
