@<TRIPOS>MOLECULE
972
   44    46     1     0     0
SMALL
bcc


@<TRIPOS>ATOM
      1 C1         -0.0430   -0.0040    0.0150 ca        1 972     -0.267900
      2 C2          1.3010    0.4080   -0.0190 ca        1 972      0.010400
      3 CL2         2.1080    0.6610   -1.5060 cl        1 972     -0.122400
      4 C3          2.0460    0.5730    1.1520 ca        1 972     -0.137000
      5 C4          1.4150    0.3190    2.3630 ca        1 972      0.009000
      6 C5          0.0020   -0.1150    2.4260 ca        1 972      0.006000
      7 C6         -0.7000   -0.2680    1.2310 ca        1 972     -0.128000
      8 C7         -0.8310   -0.1920   -1.2190 ce        1 972      0.535400
      9 N1         -0.8470    0.7810   -2.1630 nh        1 972     -0.484600
     10 N2         -1.5490   -1.3370   -1.3530 nh        1 972     -0.468700
     11 N3          1.8350    0.3810    3.6780 na        1 972     -0.286600
     12 N4         -0.3890   -0.2950    3.7360 nc        1 972     -0.322600
     13 C8          0.7250   -0.0090    4.5140 cc        1 972      0.322500
     14 C1'         0.8380   -0.0650    5.9210 cd        1 972     -0.330200
     15 C2'         1.9270    0.5770    6.5880 cd        1 972     -0.074000
     16 C3'         2.0510    0.5830    7.9420 cc        1 972     -0.200000
     17 C4'         1.0730   -0.0600    8.7610 cc        1 972     -0.184000
     18 C5'         0.0210   -0.6930    8.1750 cd        1 972     -0.003100
     19 C6'        -0.1640   -0.7770    6.7000 c         1 972      0.601500
     20 O6'        -1.0990   -1.4490    6.2290 o         1 972     -0.580100
     21 O5'        -0.9990   -1.3350    8.8510 os        1 972     -0.304900
     22 C10        -0.9040   -1.3120   10.2780 c3        1 972      0.126400
     23 C20        -2.1240   -2.0670   10.8010 c3        1 972     -0.070700
     24 C30        -1.9870   -3.5510   10.5360 c3        1 972     -0.090100
     25 C40        -2.2950   -1.7920   12.2780 c3        1 972     -0.090100
     26 HC3         3.0990    0.8860    1.1060 ha        1 972      0.155000
     27 HC6        -1.7590   -0.5580    1.2630 ha        1 972      0.148000
     28 HH11       -0.2770    1.5890   -2.0170 hn        1 972      0.315700
     29 HH12       -1.3170    0.6860   -3.0320 hn        1 972      0.315700
     30 HH21       -1.5160   -1.9990   -0.6050 hn        1 972      0.315700
     31 HH22       -2.1600   -1.5100   -2.1160 hn        1 972      0.315700
     32 HN3         2.7390    0.6100    3.9920 hn        1 972      0.308700
     33 HC2'        2.6850    1.1140    5.9980 ha        1 972      0.087000
     34 HC3'        2.8910    1.0880    8.4370 ha        1 972      0.114000
     35 HC4'        1.2030   -0.0170    9.8500 ha        1 972      0.119000
     36 H10A       -0.9130   -0.2490   10.6380 h1        1 972      0.031200
     37 H10B        0.0460   -1.8100   10.6040 h1        1 972      0.031200
     38 H20        -3.0290   -1.6880   10.2460 hc        1 972      0.067700
     39 H30A       -1.1250   -3.9750   11.1040 hc        1 972      0.034533
     40 H30B       -1.8160   -3.7230    9.4450 hc        1 972      0.034533
     41 H30C       -2.9150   -4.0870   10.8470 hc        1 972      0.034533
     42 H40A       -2.4570   -0.7020   12.4590 hc        1 972      0.034533
     43 H40B       -1.3890   -2.1140   12.8460 hc        1 972      0.034533
     44 H40C       -3.1770   -2.3520   12.6730 hc        1 972      0.034533
@<TRIPOS>BOND
     1    1    2 ar  
     2    1    7 ar  
     3    1    8 1   
     4    2    3 1   
     5    2    4 ar  
     6    4    5 ar  
     7    4   26 1   
     8    5    6 ar  
     9    5   11 2   
    10    6    7 ar  
    11    6   12 2   
    12    7   27 1   
    13    8    9 2   
    14    8   10 1   
    15    9   28 1   
    16    9   29 1   
    17   10   30 1   
    18   10   31 1   
    19   11   13 1   
    20   11   32 1   
    21   12   13 1   
    22   13   14 2   
    23   14   15 1   
    24   14   19 1   
    25   15   16 2   
    26   15   33 1   
    27   16   17 1   
    28   16   34 1   
    29   17   18 2   
    30   17   35 1   
    31   18   19 1   
    32   18   21 1   
    33   19   20 2   
    34   21   22 1   
    35   22   23 1   
    36   22   36 1   
    37   22   37 1   
    38   23   24 1   
    39   23   25 1   
    40   23   38 1   
    41   24   39 1   
    42   24   40 1   
    43   24   41 1   
    44   25   42 1   
    45   25   43 1   
    46   25   44 1   
@<TRIPOS>SUBSTRUCTURE
     1 972         1 TEMP              0 ****  ****    0 ROOT
