@<TRIPOS>MOLECULE
molecule
   38    41     1     0     0
SMALL
bcc


@<TRIPOS>ATOM
      1 C1           0.0000     0.0000     0.0000 ca         1 973      -0.131000
      2 C2           1.3910     0.0000     0.0000 ca         1 973      -0.113000
      3 C3           2.0920     0.0000     1.1710 ca         1 973      -0.129000
      4 C4           1.4050    -0.0010     2.3870 ca         1 973      -0.012000
      5 C5          -0.0120    -0.0020     2.3920 ca         1 973      -0.044000
      6 C6          -0.7010    -0.0010     1.1680 ca         1 973      -0.106000
      7 C7          -0.6990    -0.0030     3.6190 ca         1 973      -0.093000
      8 C8          -0.0190    -0.0040     4.7980 ca         1 973      -0.136000
      9 C9           1.3680    -0.0030     4.8440 ca         1 973      -0.077000
     10 C10          2.1150    -0.0020     3.6680 ca         1 973      -0.087800
     11 C11          3.5790    -0.0030     3.7110 ce         1 973      -0.030200
     12 C12          4.2260     0.3430     4.8580 cd         1 973       0.014100
     13 C13          5.6250     0.5110     5.0030 cd         1 973       0.134100
     14 C14          5.8500     0.8620     6.3300 cc         1 973      -0.205400
     15 C15          4.5840     0.9010     6.9640 c          1 973       0.735800
     16 O1           4.3830     1.1740     8.1340 o          1 973      -0.546500
     17 O2           3.6410     0.5920     6.0550 os         1 973      -0.298200
     18 C16          7.1610     1.1410     6.9580 ca         1 973      -0.025800
     19 C17          7.4490     2.4200     7.4380 ca         1 973      -0.092500
     20 C18          8.6730     2.6730     8.0230 ca         1 973      -0.124500
     21 C19          9.6130     1.6640     8.1350 ca         1 973       0.035400
     22 C20          9.3320     0.3930     7.6600 ca         1 973      -0.124500
     23 C21          8.1100     0.1260     7.0790 ca         1 973      -0.092500
     24 Cl1         11.1500     1.9910     8.8720 cl         1 973      -0.108400
     25 O3           6.5610     0.3580     4.0370 oh         1 973      -0.486100
     26 H1          -0.5340     0.0000    -0.9430 ha         1 973       0.132000
     27 H2           1.9260     0.0010    -0.9420 ha         1 973       0.131000
     28 H3           3.1760    -0.0000     1.1570 ha         1 973       0.129000
     29 H6          -1.7840    -0.0010     1.1530 ha         1 973       0.135000
     30 H7          -1.7820    -0.0030     3.6260 ha         1 973       0.134000
     31 H8          -0.5760    -0.0040     5.7270 ha         1 973       0.136000
     32 H9           1.8740    -0.0040     5.8020 ha         1 973       0.166000
     33 H11          4.1450    -0.1750     2.8040 ha         1 973       0.161000
     34 H17          6.7140     3.2110     7.3510 ha         1 973       0.144500
     35 H18          8.8980     3.6650     8.3960 ha         1 973       0.147000
     36 H20         10.0700    -0.3940     7.7520 ha         1 973       0.147000
     37 H21          7.8910    -0.8680     6.7080 ha         1 973       0.144500
     38 HO3          6.6340     1.1560     3.5410 ho         1 973       0.437000
@<TRIPOS>BOND
     1     1     2 ar
     2     1     6 ar
     3     1    26 1
     4     2     3 ar
     5     2    27 1
     6     3     4 ar
     7     3    28 1
     8     4    10 ar
     9     4     5 ar
    10     5     7 ar
    11     5     6 ar
    12     6    29 1
    13     7     8 ar
    14     7    30 1
    15     8     9 ar
    16     8    31 1
    17     9    10 ar
    18     9    32 1
    19    10    11 1
    20    11    12 2
    21    11    33 1
    22    12    13 1
    23    12    17 1
    24    13    25 1
    25    13    14 2
    26    14    18 1
    27    14    15 1
    28    15    17 1
    29    15    16 2
    30    18    19 ar
    31    18    23 ar
    32    19    20 ar
    33    19    34 1
    34    20    21 ar
    35    20    35 1
    36    21    24 1
    37    21    22 ar
    38    22    23 ar
    39    22    36 1
    40    23    37 1
    41    25    38 1
@<TRIPOS>SUBSTRUCTURE
     1 973         1 TEMP              0 ****  ****    0 ROOT
