@<TRIPOS>MOLECULE
973
   38    41     1     0     0
SMALL
bcc


@<TRIPOS>ATOM
      1 C1          0.0970   -0.0340   -0.0750 ca        1 973     -0.131000
      2 C2          1.5060    0.0390    0.0220 ca        1 973     -0.119000
      3 C3          2.1200    0.0540    1.2510 ca        1 973     -0.128000
      4 C4          1.3590   -0.0110    2.4520 ca        1 973     -0.011000
      5 C5         -0.0560   -0.0650    2.3480 ca        1 973     -0.046000
      6 C6         -0.6670   -0.0820    1.0640 ca        1 973     -0.111000
      7 C7         -0.8500   -0.0930    3.5270 ca        1 973     -0.099000
      8 C8         -0.2570   -0.0620    4.7640 ca        1 973     -0.136000
      9 C9          1.1490   -0.0160    4.8780 ca        1 973     -0.080000
     10 C10         1.9580   -0.0030    3.7550 ca        1 973     -0.068800
     11 C11         3.4010   -0.0170    3.8820 ce        1 973     -0.036200
     12 C12         4.1280    0.4390    4.9180 cd        1 973      0.040100
     13 C13         5.5970    0.4390    5.0810 cd        1 973      0.177100
     14 C14         5.9250    1.0090    6.2890 cc        1 973     -0.247400
     15 C15         4.6480    1.4130    6.9180 c         1 973      0.736800
     16 O1          4.3140    1.9750    7.9490 o         1 973     -0.547500
     17 O2          3.5800    1.0370    6.0700 os        1 973     -0.338200
     18 C16         7.2150    1.2190    6.8920 ca        1 973     -0.018800
     19 C17         7.4300    2.3270    7.7280 ca        1 973     -0.118500
     20 C18         8.6790    2.5520    8.2980 ca        1 973     -0.118500
     21 C19         9.7290    1.6640    8.0410 ca        1 973      0.018400
     22 C20         9.5240    0.5440    7.2300 ca        1 973     -0.118500
     23 C21         8.2720    0.3230    6.6630 ca        1 973     -0.118500
     24 CL1        11.2580    1.9410    8.7260 cl        1 973     -0.087400
     25 O3          6.3690   -0.0670    4.0950 oh        1 973     -0.458100
     26 H1         -0.3730   -0.0480   -1.0700 ha        1 973      0.135000
     27 H2          2.1030    0.0890   -0.9000 ha        1 973      0.133000
     28 H3          3.2160    0.1300    1.3060 ha        1 973      0.132000
     29 H6         -1.7650   -0.1320    1.0060 ha        1 973      0.134000
     30 H7         -1.9450   -0.1360    3.4250 ha        1 973      0.135000
     31 H8         -0.8650   -0.0740    5.6810 ha        1 973      0.140000
     32 H9          1.5980    0.0060    5.8860 ha        1 973      0.158000
     33 H11         3.9730   -0.4630    3.0460 ha        1 973      0.156000
     34 H17         6.5930    3.0130    7.9440 ha        1 973      0.145500
     35 H18         8.8360    3.4250    8.9500 ha        1 973      0.151000
     36 H20        10.3450   -0.1660    7.0440 ha        1 973      0.151000
     37 H21         8.1080   -0.5840    6.0610 ha        1 973      0.145500
     38 HO3         7.2980    0.1380    4.3040 ho        1 973      0.447000
@<TRIPOS>BOND
     1    1    2 ar  
     2    1    6 ar  
     3    1   26 1   
     4    2    3 ar  
     5    2   27 1   
     6    3    4 ar  
     7    3   28 1   
     8    4    5 ar  
     9    4   10 ar  
    10    5    6 ar  
    11    5    7 ar  
    12    6   29 1   
    13    7    8 ar  
    14    7   30 1   
    15    8    9 ar  
    16    8   31 1   
    17    9   10 ar  
    18    9   32 1   
    19   10   11 1   
    20   11   12 2   
    21   11   33 1   
    22   12   13 1   
    23   12   17 1   
    24   13   14 2   
    25   13   25 1   
    26   14   15 1   
    27   14   18 1   
    28   15   16 2   
    29   15   17 1   
    30   18   19 ar  
    31   18   23 ar  
    32   19   20 ar  
    33   19   34 1   
    34   20   21 ar  
    35   20   35 1   
    36   21   22 ar  
    37   21   24 1   
    38   22   23 ar  
    39   22   36 1   
    40   23   37 1   
    41   25   38 1   
@<TRIPOS>SUBSTRUCTURE
     1 973         1 TEMP              0 ****  ****    0 ROOT
