@<TRIPOS>MOLECULE
974
   68    72     1     0     0
SMALL
bcc


@<TRIPOS>ATOM
      1 O1           0.0000     0.0000     0.0000 os         1 974      -0.236200
      2 C11          1.3590     0.0000     0.0000 ca         1 974       0.124100
      3 C12          2.0540     0.0000     1.2300 ca         1 974      -0.060000
      4 C13          3.4520    -0.0460     1.2980 ca         1 974      -0.239900
      5 C14          4.2000    -0.0490     0.1150 ca         1 974      -0.036000
      6 C15          3.5630    -0.0420    -1.1270 ca         1 974      -0.107000
      7 C16          2.1490    -0.0310    -1.2010 ca         1 974       0.175100
      8 O11          1.5820    -0.0390    -2.4430 oh         1 974      -0.477100
      9 C17          4.0030    -0.0050     2.5920 ce         1 974       0.228800
     10 N11          3.2690     0.0150     3.7100 n2         1 974      -0.522100
     11 N12          5.3020     0.0530     2.8470 nz         1 974       0.196400
     12 C1          -2.2530    -0.4490    -0.6080 ca         1 974       0.036900
     13 F1          -2.6420     0.7990    -0.5150 f          1 974      -0.061900
     14 C2          -3.1870    -1.4650    -0.9610 ca         1 974       0.040600
     15 C3          -2.7300    -2.7940    -1.0340 ca         1 974       0.012900
     16 F2          -3.5590    -3.7460    -1.3710 f          1 974      -0.060900
     17 C4          -1.3860    -3.0720    -0.7560 ca         1 974       0.069800
     18 N5          -0.5190    -2.0930    -0.4220 na         1 974       0.280900
     19 C6          -0.9350    -0.8060    -0.3500 ca         1 974       0.078800
     20 N31         -4.4900    -1.1690    -1.2170 nh         1 974      -0.095000
     21 C32         -4.8010     0.0740    -1.9100 c3         1 974       0.081800
     22 C33         -5.8940    -0.2070    -2.9900 c3         1 974      -0.037700
     23 C34         -7.1670    -0.8080    -2.2830 c3         1 974      -0.171400
     24 C35         -6.7520    -2.1450    -1.5700 c3         1 974       0.014600
     25 C36         -5.5690    -1.9020    -0.5970 c3         1 974       0.107800
     26 C37         -6.2460     0.9480    -3.8500 c          1 974       0.940600
     27 O31         -7.2760     1.6090    -3.5400 o          1 974      -0.841300
     28 O32         -5.9040     0.9910    -5.0650 o          1 974      -0.841300
     29 C21         -1.1410    -5.4450    -0.2590 ca         1 974       0.107100
     30 C22         -1.6510    -5.4760     1.0390 ca         1 974      -0.177000
     31 C23         -1.9830    -6.7140     1.6190 ca         1 974      -0.053000
     32 C24         -1.7890    -7.8940     0.8760 ca         1 974      -0.103000
     33 C25         -1.2700    -7.8550    -0.4340 ca         1 974      -0.052500
     34 C26         -0.9600    -6.6170    -1.0130 ca         1 974      -0.055000
     35 C27         -1.1290    -9.0410    -1.1800 cc         1 974       0.204000
     36 N21         -0.4920   -10.1920    -0.8500 na         1 974       0.356100
     37 C30          0.2330   -10.5140     0.3560 c3         1 974      -0.030400
     38 N22         -1.6920    -9.1510    -2.4040 nd         1 974      -0.619000
     39 C28         -0.6400   -11.1370    -1.8990 cc         1 974      -0.462600
     40 C29         -1.4790   -10.4150    -2.9750 cd         1 974       0.368200
     41 H12          1.4860     0.0020     2.1520 ha         1 974       0.123000
     42 H14          5.2820    -0.0710     0.1630 ha         1 974       0.100000
     43 H15          4.1520    -0.0550    -2.0370 ha         1 974       0.149000
     44 HO11         1.7980     0.7620    -2.8920 ho         1 974       0.450000
     45 HN11         2.2700    -0.0110     3.6550 hn         1 974       0.380400
     46 H121         5.6880     0.8740     2.4270 hn         1 974       0.223800
     47 H122         5.4460     0.0850     3.8370 hn         1 974       0.223800
     48 HN5          0.4360    -2.3190    -0.2290 hn         1 974       0.150700
     49 H321        -3.9070     0.4540    -2.3900 h1         1 974       0.054700
     50 H322        -5.1740     0.8000    -1.1980 h1         1 974       0.054700
     51 H33         -5.5000    -0.9800    -3.6400 hc         1 974       0.004700
     52 H341        -6.7170    -1.3480    -3.1070 hc         1 974       0.080200
     53 H342        -8.1750    -0.6470    -2.6450 hc         1 974       0.080200
     54 H351        -7.5990    -2.5280    -1.0120 hc         1 974       0.020200
     55 H352        -6.4540    -2.8700    -2.3180 hc         1 974       0.020200
     56 H361        -5.9290    -1.3390     0.2560 h1         1 974       0.039700
     57 H362        -5.1930    -2.8590    -0.2580 h1         1 974       0.039700
     58 H22         -1.6450    -4.5780     1.6440 ha         1 974       0.102000
     59 H23         -2.2210    -6.7710     2.6750 ha         1 974       0.114000
     60 H24         -2.0450    -8.8490     1.3190 ha         1 974       0.116000
     61 H26         -0.4250    -6.5790    -1.9540 ha         1 974       0.135000
     62 H301        -0.4680   -10.7750     1.1400 h1         1 974       0.028033
     63 H302         0.8920   -11.3520     0.1670 h1         1 974       0.028033
     64 H303         0.8180    -9.6570     0.6650 h1         1 974       0.028033
     65 H28         -0.2510   -12.1480    -1.9360 h4         1 974       0.166000
     66 H29         -1.8110   -10.7870    -3.9360 h4         1 974       0.024100
     67 H123         5.7530    -0.7550     2.4660 hn         1 974       0.223800
     68 O2          -0.8240    -4.2720    -0.8090 os         1 974      -0.244200
@<TRIPOS>BOND
     1     1     2 1   
     2     1    19 1   
     3     2     3 ar  
     4     2     7 ar  
     5     3     4 ar  
     6     3    41 1   
     7     4     5 ar  
     8     4     9 1   
     9     5     6 ar  
    10     5    42 1   
    11     6     7 ar  
    12     6    43 1   
    13     7     8 1   
    14     8    44 1   
    15     9    10 2   
    16     9    11 1   
    17    10    45 1   
    18    11    46 1   
    19    11    47 1   
    20    11    67 1   
    21    12    13 1   
    22    12    14 ar  
    23    12    19 ar  
    24    14    15 ar  
    25    14    20 1   
    26    15    16 1   
    27    15    17 ar  
    28    17    18 2   
    29    17    68 1   
    30    18    19 1   
    31    18    48 1   
    32    20    21 1   
    33    20    25 1   
    34    21    22 1   
    35    21    49 1   
    36    21    50 1   
    37    22    23 1   
    38    22    26 1   
    39    22    51 1   
    40    23    24 1   
    41    23    52 1   
    42    23    53 1   
    43    24    25 1   
    44    24    54 1   
    45    24    55 1   
    46    25    56 1   
    47    25    57 1   
    48    26    27 1   
    49    26    28 1   
    50    29    30 ar  
    51    29    34 ar  
    52    29    68 1   
    53    30    31 ar  
    54    30    58 1   
    55    31    32 ar  
    56    31    59 1   
    57    32    33 ar  
    58    32    60 1   
    59    33    34 ar  
    60    33    35 1   
    61    34    61 1   
    62    35    36 1   
    63    35    38 2   
    64    36    37 1   
    65    36    39 1   
    66    37    62 1   
    67    37    63 1   
    68    37    64 1   
    69    38    40 1   
    70    39    40 2   
    71    39    65 1   
    72    40    66 1   
@<TRIPOS>SUBSTRUCTURE
     1 974         1 TEMP              0 ****  ****    0 ROOT
