@<TRIPOS>MOLECULE
molecule
   68    72     1     0     0
SMALL
bcc


@<TRIPOS>ATOM
      1 O1           0.0000     0.0000     0.0000 os         1 974      -0.271200
      2 C11          1.3590     0.0000     0.0000 ca         1 974       0.122100
      3 C12          2.0540     0.0000     1.2300 ca         1 974      -0.037000
      4 C13          3.4520    -0.0460     1.2980 ca         1 974      -0.216900
      5 C14          4.2000    -0.0490     0.1150 ca         1 974      -0.080000
      6 C15          3.5630    -0.0420    -1.1270 ca         1 974      -0.145000
      7 C16          2.1490    -0.0310    -1.2010 ca         1 974       0.162100
      8 O11          1.5820    -0.0390    -2.4430 oh         1 974      -0.488100
      9 C17          4.0030    -0.0050     2.5920 ce         1 974       0.550800
     10 N11          3.2690     0.0150     3.7100 n2         1 974      -0.709100
     11 N12          5.3020     0.0530     2.8470 nz         1 974      -0.791600
     12 C1          -2.2530    -0.4490    -0.6080 ca         1 974       0.046900
     13 F1          -2.6420     0.7990    -0.5150 f          1 974      -0.063900
     14 C2          -3.1870    -1.4650    -0.9610 ca         1 974       0.214600
     15 C3          -2.7300    -2.7940    -1.0340 ca         1 974       0.023900
     16 F2          -3.5590    -3.7460    -1.3710 f          1 974      -0.065900
     17 C4          -1.3860    -3.0720    -0.7560 ca         1 974       0.228800
     18 N5          -0.5190    -2.0930    -0.4220 na         1 974      -0.227100
     19 C6          -0.9350    -0.8060    -0.3500 ca         1 974       0.251800
     20 N31         -4.4900    -1.1690    -1.2170 nh         1 974      -0.563000
     21 C32         -4.8010     0.0740    -1.9100 c3         1 974       0.181800
     22 C33         -5.8940    -0.2070    -2.9900 c3         1 974      -0.088700
     23 C34         -7.1670    -0.8080    -2.2830 c3         1 974      -0.199400
     24 C35         -6.7520    -2.1450    -1.5700 c3         1 974      -0.065400
     25 C36         -5.5690    -1.9020    -0.5970 c3         1 974       0.202800
     26 C37         -6.2460     0.9480    -3.8500 c          1 974       0.867600
     27 O31         -7.2760     1.6090    -3.5400 o          1 974      -0.793800
     28 O32         -5.9040     0.9910    -5.0650 o          1 974      -0.793800
     29 C21         -1.1410    -5.4450    -0.2590 ca         1 974       0.114100
     30 C22         -1.6510    -5.4760     1.0390 ca         1 974      -0.190000
     31 C23         -1.9830    -6.7140     1.6190 ca         1 974      -0.094000
     32 C24         -1.7890    -7.8940     0.8760 ca         1 974      -0.119000
     33 C25         -1.2700    -7.8550    -0.4340 ca         1 974      -0.061500
     34 C26         -0.9600    -6.6170    -1.0130 ca         1 974      -0.086000
     35 C27         -1.1290    -9.0410    -1.1800 cc         1 974       0.409000
     36 N21         -0.4920   -10.1920    -0.8500 na         1 974      -0.150900
     37 C30          0.2330   -10.5140     0.3560 c3         1 974       0.023600
     38 N22         -1.6920    -9.1510    -2.4040 nd         1 974      -0.677000
     39 C28         -0.6400   -11.1370    -1.8990 cc         1 974      -0.287600
     40 C29         -1.4790   -10.4150    -2.9750 cd         1 974       0.329200
     41 H12          1.4860     0.0020     2.1520 ha         1 974       0.192000
     42 H14          5.2820    -0.0710     0.1630 ha         1 974       0.129000
     43 H15          4.1520    -0.0550    -2.0370 ha         1 974       0.186000
     44 HO11         1.8340     0.7420    -2.9090 ho         1 974       0.468000
     45 HN11         3.7180     0.0570     4.6040 hn         1 974       0.439400
     46 H121         5.7990    -0.4990     2.1760 hn         1 974       0.469467
     47 H122         5.4770    -0.3030     3.7660 hn         1 974       0.469467
     48 HN5          0.4360    -2.3190    -0.2290 hn         1 974       0.325700
     49 H321        -5.1740     0.8010    -1.1980 h1         1 974       0.076700
     50 H322        -3.9070     0.4530    -2.3900 h1         1 974       0.076700
     51 H33         -5.5000    -0.9800    -3.6400 hc         1 974       0.027700
     52 H341        -6.7170    -1.3480    -3.1070 hc         1 974       0.107200
     53 H342        -8.1750    -0.6470    -2.6450 hc         1 974       0.107200
     54 H351        -7.5990    -2.5280    -1.0120 hc         1 974       0.051200
     55 H352        -6.4540    -2.8700    -2.3180 hc         1 974       0.051200
     56 H361        -5.9290    -1.3390     0.2560 h1         1 974       0.061200
     57 H362        -5.1930    -2.8590    -0.2580 h1         1 974       0.061200
     58 H22         -1.9300    -4.5530     1.5330 ha         1 974       0.134000
     59 H23         -2.2190    -6.7710     2.6750 ha         1 974       0.151000
     60 H24         -2.0440    -8.8490     1.3190 ha         1 974       0.150000
     61 H26         -0.7530    -6.5530    -2.0740 ha         1 974       0.179000
     62 H301         0.8980   -11.3480     0.1660 h1         1 974       0.056700
     63 H302         0.8130    -9.6540     0.6690 h1         1 974       0.056700
     64 H303        -0.4680   -10.7820     1.1380 h1         1 974       0.056700
     65 H28         -0.2510   -12.1480    -1.9360 h4         1 974       0.195000
     66 H29         -1.8110   -10.7870    -3.9360 h4         1 974       0.072100
     67 H123         5.6090     1.0040     2.8000 hn         1 974       0.469467
     68 O2          -0.8240    -4.2720    -0.8090 os         1 974      -0.281200
@<TRIPOS>BOND
     1     1     2 1
     2     1    19 1
     3     2     3 ar
     4     2     7 ar
     5     3     4 ar
     6     3    41 1
     7     4     5 ar
     8     4     9 1
     9     5     6 ar
    10     5    42 1
    11     6     7 ar
    12     6    43 1
    13     7     8 1
    14     8    44 1
    15     9    10 2
    16     9    11 1
    17    10    45 1
    18    11    46 1
    19    11    47 1
    20    12    13 1
    21    12    14 ar
    22    12    19 ar
    23    14    15 ar
    24    14    20 1
    25    15    16 1
    26    15    17 ar
    27    17    18 2
    28    17    68 1
    29    18    19 1
    30    18    48 1
    31    20    21 1
    32    20    25 1
    33    21    22 1
    34    21    49 1
    35    21    50 1
    36    22    23 1
    37    22    26 1
    38    22    51 1
    39    23    24 1
    40    23    52 1
    41    23    53 1
    42    24    25 1
    43    24    54 1
    44    24    55 1
    45    25    56 1
    46    25    57 1
    47    26    27 1
    48    26    28 1
    49    68    29 1
    50    29    30 ar
    51    29    34 ar
    52    30    31 ar
    53    30    58 1
    54    31    32 ar
    55    31    59 1
    56    32    33 ar
    57    32    60 1
    58    33    34 ar
    59    33    35 1
    60    34    61 1
    61    35    36 1
    62    35    38 2
    63    36    37 1
    64    36    39 1
    65    37    62 1
    66    37    63 1
    67    37    64 1
    68    38    40 1
    69    39    40 2
    70    39    65 1
    71    40    66 1
    72    67    11 1
@<TRIPOS>SUBSTRUCTURE
     1 974         1 TEMP              0 ****  ****    0 ROOT
