@<TRIPOS>MOLECULE
molecule
   21    21     1     0     0
SMALL
bcc


@<TRIPOS>ATOM
      1 CAF          0.0000     0.0000     0.0000 ca         1 975      -0.148000
      2 CAJ          1.3860     0.0000     0.0000 ca         1 975       0.092100
      3 OAC          2.0670     0.0010    -1.1780 oh         1 975      -0.511100
      4 CAI          2.0790     0.0000     1.2060 ca         1 975       0.089100
      5 OAB          3.4390     0.0010     1.2100 oh         1 975      -0.511100
      6 CAD          1.3820    -0.0010     2.4030 ca         1 975      -0.151000
      7 CAE         -0.0020    -0.0010     2.3970 ca         1 975      -0.120000
      8 CAK         -0.6900     0.0040     1.1980 ca         1 975      -0.082300
      9 CAH         -2.1980     0.0040     1.1980 c3         1 975      -0.034100
     10 CAG         -2.7080     1.4470     1.2040 c3         1 975       0.143400
     11 OAA         -4.1370     1.4460     1.2030 oh         1 975      -0.613800
     12 H1          -0.5420     0.0040    -0.9380 ha         1 975       0.144000
     13 H2           2.0240    -0.8570    -1.5660 ho         1 975       0.423000
     14 H3           3.7520     0.8580     1.4480 ho         1 975       0.422000
     15 H4           1.9190    -0.0030     3.3430 ha         1 975       0.143000
     16 H5          -0.5460     0.0010     3.3330 ha         1 975       0.137000
     17 H6          -2.5590    -0.5110     2.0790 hc         1 975       0.062200
     18 H7          -2.5590    -0.5020     0.3100 hc         1 975       0.062200
     19 H8          -2.3460     1.9620     0.3230 h1         1 975       0.023700
     20 H9          -2.3480     1.9530     2.0920 h1         1 975       0.023700
     21 H10         -4.4520     2.3350     1.2060 ho         1 975       0.404000
@<TRIPOS>BOND
     1     7     6 ar
     2     7     8 ar
     3     9     8 1
     4     9    10 1
     5     6     4 ar
     6     8     1 ar
     7     4     5 1
     8     4     2 ar
     9    10    11 1
    10     1     2 ar
    11     2     3 1
    12     1    12 1
    13     3    13 1
    14     5    14 1
    15     6    15 1
    16     7    16 1
    17     9    17 1
    18     9    18 1
    19    10    19 1
    20    10    20 1
    21    11    21 1
@<TRIPOS>SUBSTRUCTURE
     1 975         1 TEMP              0 ****  ****    0 ROOT
