@<TRIPOS>MOLECULE
molecule
   44    46     1     0     0
SMALL
bcc


@<TRIPOS>ATOM
      1 N            0.0000     0.0000     0.0000 nb         1 976      -0.714000
      2 Cl           5.8500     0.0040     0.0270 cl         1 976      -0.147400
      3 C1           4.1140     0.0020     0.0340 ca         1 976       0.009400
      4 O1          -1.7280     2.0230     2.7370 o          1 976      -0.833300
      5 C2           3.4210     0.0030    -1.1760 ca         1 976      -0.140000
      6 O2          -2.6090     1.4390     4.6770 o          1 976      -0.833300
      7 C3           2.0610     0.0020    -1.2050 ca         1 976      -0.156300
      8 C4           1.3370     0.0000     0.0000 ca         1 976       0.416600
      9 C5           2.0440     0.0000     1.2270 ca         1 976      -0.142300
     10 C6           3.4450     0.0010     1.2210 ca         1 976      -0.098000
     11 C7          -0.6910    -0.0010     1.1150 ca         1 976       0.502600
     12 C8          -0.0760    -0.0010     2.3600 ca         1 976      -0.099600
     13 C9           1.3110    -0.0010     2.4400 cp         1 976      -0.032000
     14 C10          2.0010    -0.0030     3.7510 cp         1 976      -0.004000
     15 C11         -0.9070    -0.0020     3.6170 c3         1 976      -0.148400
     16 C12         -1.7780     1.2280     3.6450 c          1 976       0.898600
     17 C13         -1.7890    -1.2520     3.6440 c3         1 976      -0.059400
     18 C14         -2.5410    -1.3180     4.9750 c3         1 976      -0.097400
     19 C15         -3.4230    -2.5680     5.0020 c3         1 976      -0.092100
     20 C16         -2.1970    -0.0010     1.0430 c3         1 976      -0.171400
     21 C17          2.7780     1.0900     4.1340 ca         1 976      -0.106000
     22 C18          3.4190     1.0830     5.3560 ca         1 976      -0.140000
     23 C19          3.2910    -0.0050     6.2010 ca         1 976      -0.139000
     24 C20          2.5230    -1.0920     5.8260 ca         1 976      -0.140000
     25 C21          1.8730    -1.0950     4.6090 ca         1 976      -0.106000
     26 H2           3.9740     0.0040    -2.1080 ha         1 976       0.128000
     27 H3           1.5380     0.0020    -2.1540 ha         1 976       0.142000
     28 H6           3.9900    -0.1130     2.1500 ha         1 976       0.146000
     29 H11         -0.2540    -0.0020     4.4820 hc         1 976       0.069700
     30 H13         -2.5020    -1.2090     2.8290 hc         1 976       0.025200
     31 H13A        -1.1700    -2.1340     3.5350 hc         1 976       0.025200
     32 H14         -3.1600    -0.4360     5.0830 hc         1 976       0.074700
     33 H14A        -1.8280    -1.3610     5.7900 hc         1 976       0.074700
     34 H15         -4.1950    -2.4810     4.2460 hc         1 976       0.015367
     35 H15A        -2.8160    -3.4420     4.8000 hc         1 976       0.015367
     36 H15B        -3.8820    -2.6640     5.9780 hc         1 976       0.015367
     37 H16         -2.5960     0.6360     1.8220 hc         1 976       0.068033
     38 H16A        -2.5120     0.3700     0.0750 hc         1 976       0.068033
     39 H16B        -2.5640    -1.0110     1.1790 hc         1 976       0.068033
     40 H17          2.8210     1.9720     3.5050 ha         1 976       0.139500
     41 H18          4.0190     1.9340     5.6570 ha         1 976       0.121500
     42 H19          3.7970    -0.0070     7.1590 ha         1 976       0.115000
     43 H20          2.4370    -1.9460     6.4870 ha         1 976       0.121500
     44 H21          1.7120    -2.1380     4.3690 ha         1 976       0.139500
@<TRIPOS>BOND
     1     1     8 ar
     2     1    11 ar
     3     2     3 1
     4     3     5 ar
     5     3    10 ar
     6     4    16 1
     7     5     7 ar
     8     6    16 1
     9     7     8 ar
    10     8     9 ar
    11     9    10 ar
    12     9    13 ar
    13    11    12 ar
    14    11    20 1
    15    12    13 ar
    16    12    15 1
    17    13    14 1
    18    14    21 ar
    19    14    25 ar
    20    15    16 1
    21    15    17 1
    22    17    18 1
    23    18    19 1
    24    21    22 ar
    25    22    23 ar
    26    23    24 ar
    27    24    25 ar
    28     5    26 1
    29     7    27 1
    30    10    28 1
    31    15    29 1
    32    17    30 1
    33    17    31 1
    34    18    32 1
    35    18    33 1
    36    19    34 1
    37    19    35 1
    38    19    36 1
    39    20    37 1
    40    20    38 1
    41    20    39 1
    42    21    40 1
    43    22    41 1
    44    23    42 1
    45    24    43 1
    46    25    44 1
@<TRIPOS>SUBSTRUCTURE
     1 976         1 TEMP              0 ****  ****    0 ROOT
