@<TRIPOS>MOLECULE
976
   44    46     1     0     0
SMALL
bcc


@<TRIPOS>ATOM
      1 N          -0.0040   -0.1600   -0.1070 nb        1 976     -0.699000
      2 CL          5.8760   -0.3520    0.1710 cl        1 976     -0.132400
      3 C1          4.1690   -0.3070    0.1260 ca        1 976     -0.000600
      4 O1         -0.8310    2.5140    4.0200 o         1 976     -0.825800
      5 C2          3.5220   -0.3860   -1.1310 ca        1 976     -0.142000
      6 O2         -2.8420    1.7620    3.4170 o         1 976     -0.825800
      7 C3          2.1530   -0.3420   -1.1950 ca        1 976     -0.161300
      8 C4          1.3660   -0.2210   -0.0040 ca        1 976      0.389600
      9 C5          2.0300   -0.1600    1.2560 ca        1 976     -0.127300
     10 C6          3.4490   -0.1930    1.2930 ca        1 976     -0.097000
     11 C7         -0.7320   -0.0340    1.0000 ca        1 976      0.462600
     12 C8         -0.1570    0.0170    2.3340 ca        1 976     -0.086600
     13 C9          1.2270   -0.0550    2.4400 cp        1 976     -0.026000
     14 C10         1.9220   -0.0280    3.7340 cp        1 976     -0.041000
     15 C11        -1.0120    0.1510    3.5480 c3        1 976     -0.173400
     16 C12        -1.6150    1.5930    3.6580 c         1 976      0.924600
     17 C13        -2.0820   -0.9260    3.6410 c3        1 976     -0.062400
     18 C14        -2.2510   -1.4190    5.0650 c3        1 976     -0.078400
     19 C15        -3.3480   -2.4480    5.1640 c3        1 976     -0.087100
     20 C16        -2.2170    0.0580    0.8290 c3        1 976     -0.181400
     21 C17         1.8450    1.1050    4.5590 ca        1 976     -0.110500
     22 C18         2.5390    1.1300    5.7690 ca        1 976     -0.147500
     23 C19         3.2990    0.0330    6.1720 ca        1 976     -0.140000
     24 C20         3.3620   -1.1020    5.3640 ca        1 976     -0.147500
     25 C21         2.6780   -1.1330    4.1500 ca        1 976     -0.110500
     26 H2          4.1250   -0.4770   -2.0460 ha        1 976      0.132000
     27 H3          1.6400   -0.3930   -2.1670 ha        1 976      0.141000
     28 H6          3.9590   -0.1190    2.2670 ha        1 976      0.155000
     29 H11        -0.3540    0.0560    4.4600 hc        1 976      0.061700
     30 H13        -1.8210   -1.7960    2.9820 hc        1 976      0.043200
     31 H13A       -3.0610   -0.5010    3.2870 hc        1 976      0.043200
     32 H14        -1.2870   -1.8630    5.4310 hc        1 976      0.039700
     33 H14A       -2.4900   -0.5450    5.7260 hc        1 976      0.039700
     34 H15        -3.1220   -3.3310    4.5190 hc        1 976      0.021033
     35 H15A       -3.4580   -2.8010    6.2180 hc        1 976      0.021033
     36 H15B       -4.3220   -2.0140    4.8340 hc        1 976      0.021033
     37 H16        -2.5020    0.3250   -0.2180 hc        1 976      0.069700
     38 H16A       -2.6770   -0.9310    1.0760 hc        1 976      0.069700
     39 H16B       -2.6320    0.8380    1.5250 hc        1 976      0.069700
     40 H17         1.1920    1.9530    4.2630 ha        1 976      0.170500
     41 H18         2.4710    2.0200    6.4110 ha        1 976      0.122000
     42 H19         3.8410    0.0570    7.1280 ha        1 976      0.114000
     43 H20         3.9490   -1.9740    5.6830 ha        1 976      0.122000
     44 H21         2.7280   -2.0280    3.5130 ha        1 976      0.170500
@<TRIPOS>BOND
     1    1    8 ar  
     2    1   11 ar  
     3    2    3 1   
     4    3    5 ar  
     5    3   10 ar  
     6    4   16 1   
     7    5    7 ar  
     8    5   26 1   
     9    6   16 1   
    10    7    8 ar  
    11    7   27 1   
    12    8    9 ar  
    13    9   10 ar  
    14    9   13 ar  
    15   10   28 1   
    16   11   12 ar  
    17   11   20 1   
    18   12   13 ar  
    19   12   15 1   
    20   13   14 1   
    21   14   21 ar  
    22   14   25 ar  
    23   15   16 1   
    24   15   17 1   
    25   15   29 1   
    26   17   18 1   
    27   17   30 1   
    28   17   31 1   
    29   18   19 1   
    30   18   32 1   
    31   18   33 1   
    32   19   34 1   
    33   19   35 1   
    34   19   36 1   
    35   20   37 1   
    36   20   38 1   
    37   20   39 1   
    38   21   22 ar  
    39   21   40 1   
    40   22   23 ar  
    41   22   41 1   
    42   23   24 ar  
    43   23   42 1   
    44   24   25 ar  
    45   24   43 1   
    46   25   44 1   
@<TRIPOS>SUBSTRUCTURE
     1 976         1 TEMP              0 ****  ****    0 ROOT
