@<TRIPOS>MOLECULE
977
   23    24     1     0     0
SMALL
bcc


@<TRIPOS>ATOM
      1 N1           0.0000     0.0000     0.0000 nv         1 977      -0.620500
      2 C2           1.3850     0.0000     0.0000 ca         1 977       0.743900
      3 N3           2.0290     0.0000     1.1550 nb         1 977      -0.643000
      4 C4           3.3610    -0.0050     1.1930 cp         1 977       0.532800
      5 C5           4.0720     0.0000    -0.0060 ca         1 977      -0.258500
      6 Br6          5.9620     0.0020    -0.0110 br         1 977      -0.061100
      7 C7           3.3550     0.0060    -1.2000 ca         1 977       0.672600
      8 O8           4.0050     0.0120    -2.3890 oh         1 977      -0.598300
      9 N9           2.0290     0.0060    -1.1590 nb         1 977      -0.686000
     10 C10          4.0760    -0.0100     2.4920 cp         1 977      -0.170500
     11 C11          5.2220    -0.7850     2.6560 ca         1 977      -0.069500
     12 C12          5.8870    -0.7830     3.8650 ca         1 977      -0.108000
     13 C13          5.4120    -0.0220     4.9160 ca         1 977      -0.084000
     14 C14          4.2710     0.7440     4.7620 ca         1 977      -0.108000
     15 C15          3.6010     0.7540     3.5550 ca         1 977      -0.069500
     16 HN11        -0.5000     0.8360    -0.2280 hn         1 977       0.282300
     17 HN12        -0.5000    -0.8380     0.2200 hn         1 977       0.282300
     18 HO8          3.8180    -0.7880    -2.8530 ho         1 977       0.419000
     19 H11          5.5960    -1.3820     1.8330 ha         1 977       0.116000
     20 H12          6.7800    -1.3830     3.9930 ha         1 977       0.105000
     21 H13          5.9360    -0.0250     5.8650 ha         1 977       0.102000
     22 H14          3.9030     1.3390     5.5900 ha         1 977       0.105000
     23 H15          2.7080     1.3540     3.4340 ha         1 977       0.116000
@<TRIPOS>BOND
     1     1     2 1   
     2     1    16 1   
     3     1    17 1   
     4     2     3 ar  
     5     2     9 ar  
     6     3     4 ar  
     7     4     5 ar  
     8     4    10 1   
     9     5     6 1   
    10     5     7 ar  
    11     7     8 1   
    12     7     9 ar  
    13     8    18 1   
    14    10    11 ar  
    15    10    15 ar  
    16    11    12 ar  
    17    11    19 1   
    18    12    13 ar  
    19    12    20 1   
    20    13    14 ar  
    21    13    21 1   
    22    14    15 ar  
    23    14    22 1   
    24    15    23 1   
@<TRIPOS>SUBSTRUCTURE
     1 977         1 TEMP              0 ****  ****    0 ROOT
