@<TRIPOS>MOLECULE
979
   55    59     1     0     0
SMALL
bcc


@<TRIPOS>ATOM
      1 C1          0.0070   -0.2850   -0.0250 ca        1 979      0.682900
      2 N2          1.3640   -0.3930   -0.0370 nb        1 979     -0.710000
      3 C3          1.8870   -0.2840    1.2090 ca        1 979      0.616600
      4 C4          1.1350   -0.0780    2.4150 ca        1 979     -0.393400
      5 C5         -0.2850    0.0280    2.2740 ca        1 979      0.741200
      6 N6         -0.8400   -0.0930    1.0160 nb        1 979     -0.778000
      7 O8          3.2460   -0.3670    1.5050 os        1 979     -0.298400
      8 C9          3.3490   -0.2160    2.9140 cc        1 979      0.096900
      9 C10         2.1010   -0.0450    3.4920 cd        1 979     -0.034400
     10 N11        -1.0670    0.3010    3.3770 nh        1 979     -0.855900
     11 C12        -2.5060    0.2110    3.3250 c3        1 979      0.207800
     12 C13        -3.1450    0.5560    4.6900 c3        1 979      0.157800
     13 N16        -4.5680    0.2490    4.7260 n3        1 979     -0.727600
     14 C33         1.7750    0.1170    4.8950 ca        1 979     -0.045800
     15 C34         1.3350    1.3590    5.3790 ca        1 979     -0.117500
     16 C35         1.0130    1.5110    6.7270 ca        1 979     -0.135500
     17 C36         1.1220    0.4300    7.6010 ca        1 979     -0.126000
     18 C37         1.5550   -0.8080    7.1250 ca        1 979     -0.135500
     19 C38         1.8820   -0.9660    5.7790 ca        1 979     -0.117500
     20 C44         4.7020   -0.2640    3.4210 ca        1 979     -0.043800
     21 C45         5.7410   -0.7620    2.6170 ca        1 979     -0.101500
     22 C46         7.0440   -0.8070    3.1060 ca        1 979     -0.135000
     23 C47         7.3250   -0.3560    4.3970 ca        1 979     -0.116000
     24 C48         6.2980    0.1420    5.1980 ca        1 979     -0.135000
     25 C49         4.9920    0.1910    4.7160 ca        1 979     -0.101500
     26 C2         -5.0870    0.3080    6.0880 c3        1 979      0.165800
     27 C7         -5.3460    1.0600    3.7980 c3        1 979      0.165800
     28 C11        -6.6020    0.0340    6.1640 c3        1 979      0.161300
     29 C15        -6.8610    0.7940    3.8860 c3        1 979      0.161300
     30 N1         -7.3670    0.8500    5.2430 n3        1 979     -0.820200
     31 H1         -0.4820   -0.3720   -1.0200 h5        1 979      0.056100
     32 HN11       -0.6250    0.2000    4.2640 hn        1 979      0.442800
     33 H121       -2.8220   -0.8250    3.0090 h1        1 979      0.063700
     34 H122       -2.8750    0.9370    2.5450 h1        1 979      0.063700
     35 H131       -2.9440    1.6440    4.9190 h1        1 979      0.037700
     36 H132       -2.6510   -0.0590    5.4960 h1        1 979      0.037700
     37 H38         2.2280   -1.9420    5.4060 ha        1 979      0.146000
     38 H37         1.6420   -1.6620    7.8120 ha        1 979      0.137000
     39 H36         0.8680    0.5530    8.6640 ha        1 979      0.135000
     40 H35         0.6750    2.4890    7.1000 ha        1 979      0.137000
     41 H34         1.2510    2.2130    4.6900 ha        1 979      0.146000
     42 H45         5.5190   -1.1130    1.5970 ha        1 979      0.148500
     43 H46         7.8520   -1.1980    2.4710 ha        1 979      0.136000
     44 H47         8.3550   -0.3930    4.7800 ha        1 979      0.134000
     45 H48         6.5170    0.5010    6.2140 ha        1 979      0.136000
     46 H49         4.1830    0.5870    5.3500 ha        1 979      0.148500
     47 H21        -4.5630   -0.4860    6.6900 h1        1 979      0.039200
     48 H22        -4.8760    1.3070    6.5700 h1        1 979      0.039200
     49 H2         -5.1630    2.1630    3.9570 h1        1 979      0.039200
     50 H111       -6.7710   -1.0710    5.9990 h1        1 979      0.035700
     51 H112       -6.9450    0.2830    7.2070 h1        1 979      0.035700
     52 H3         -7.0750   -0.1990    3.3920 h1        1 979      0.035700
     53 HN1        -8.3320    0.5770    5.2620 hn        1 979      0.364800
     54 H7         -5.0150    0.7990    2.7540 h1        1 979      0.039200
     55 H15        -7.3870    1.5940    3.2930 h1        1 979      0.035700
@<TRIPOS>BOND
     1    1    2 ar  
     2    1    6 ar  
     3    1   31 1   
     4    2    3 ar  
     5    3    4 ar  
     6    3    7 1   
     7    4    5 ar  
     8    4    9 1   
     9    5    6 ar  
    10    5   10 1   
    11    7    8 1   
    12    8    9 2   
    13    8   20 1   
    14    9   14 1   
    15   10   11 1   
    16   10   32 1   
    17   11   12 1   
    18   11   33 1   
    19   11   34 1   
    20   12   13 1   
    21   12   35 1   
    22   12   36 1   
    23   13   26 1   
    24   13   27 1   
    25   14   15 ar  
    26   14   19 ar  
    27   15   16 ar  
    28   15   41 1   
    29   16   17 ar  
    30   16   40 1   
    31   17   18 ar  
    32   17   39 1   
    33   18   19 ar  
    34   18   38 1   
    35   19   37 1   
    36   20   21 ar  
    37   20   25 ar  
    38   21   22 ar  
    39   21   42 1   
    40   22   23 ar  
    41   22   43 1   
    42   23   24 ar  
    43   23   44 1   
    44   24   25 ar  
    45   24   45 1   
    46   25   46 1   
    47   26   28 1   
    48   26   47 1   
    49   26   48 1   
    50   27   29 1   
    51   27   49 1   
    52   27   54 1   
    53   28   30 1   
    54   28   50 1   
    55   28   51 1   
    56   29   30 1   
    57   29   52 1   
    58   29   55 1   
    59   30   53 1   
@<TRIPOS>SUBSTRUCTURE
     1 979         1 TEMP              0 ****  ****    0 ROOT
