@<TRIPOS>MOLECULE
97A
   34    35     1     0     0
SMALL
bcc


@<TRIPOS>ATOM
      1 C5           0.0000     0.0000     0.0000 c3         1 97A       0.184100
      2 C8           1.5460     0.0000     0.0000 c3         1 97A      -0.150400
      3 C13          1.0230     0.7090     4.3720 ca         1 97A      -0.054000
      4 C15          0.8860    -0.6150     6.3700 ca         1 97A       0.099000
      5 C20          0.5670    -3.1090     6.2660 c3         1 97A       0.642200
      6 C1          -2.7820    -0.3300     1.1120 c3         1 97A       0.007900
      7 C2          -1.5660     0.0080     1.9770 c3         1 97A      -0.041400
      8 C3          -0.3150    -0.6330     1.3730 c3         1 97A       0.016700
      9 O7          -0.5110     1.3330    -0.0780 oh         1 97A      -0.574800
     10 C9           1.9170     0.0000     1.4670 c          1 97A       0.634500
     11 O10          3.0130     0.2780     1.9060 o          1 97A      -0.651500
     12 N11          0.8550    -0.3530     2.2120 n          1 97A      -0.041000
     13 C12          0.8660    -0.4400     3.6040 ca         1 97A      -0.043400
     14 C14          1.0340     0.6270     5.7450 ca         1 97A      -0.070000
     15 C16          0.8960    -0.7050     7.7990 cg         1 97A       0.199800
     16 N17          0.8860    -0.7700     8.9330 n1         1 97A      -0.333800
     17 C18          0.7270    -1.7680     5.5970 ca         1 97A      -0.180300
     18 C19          0.7180    -1.6780     4.2220 ca         1 97A      -0.054000
     19 F21         -0.5690    -3.0900     7.0810 f          1 97A      -0.202967
     20 F22          0.4260    -4.1030     5.2910 f          1 97A      -0.202967
     21 F23          1.6960    -3.3790     7.0460 f          1 97A      -0.202967
     22 H1          -0.3840    -0.6160    -0.8040 h1         1 97A       0.019700
     23 H2           1.9240     0.8920    -0.4850 hc         1 97A       0.052200
     24 H3           1.9240    -0.8920    -0.4850 hc         1 97A       0.052200
     25 H4           1.1380     1.6710     3.8870 ha         1 97A       0.126000
     26 H5          -2.9100     0.4350     0.3550 hc         1 97A       0.005367
     27 H6          -2.6290    -1.2900     0.6330 hc         1 97A       0.005367
     28 H7          -3.6670    -0.3740     1.7350 hc         1 97A       0.005367
     29 H8          -1.4380     1.0830     2.0160 hc         1 97A       0.031200
     30 H9          -1.7190    -0.3730     2.9800 hc         1 97A       0.031200
     31 H10         -0.4500    -1.7030     1.2670 h1         1 97A       0.036700
     32 H11         -0.4670     1.6350    -0.9700 ho         1 97A       0.398000
     33 H12          1.1560     1.5230     6.3420 ha         1 97A       0.123000
     34 H13          0.5950    -2.5710     3.6220 ha         1 97A       0.131000
@<TRIPOS>BOND
     1     1     2 1   
     2     1     8 1   
     3     1     9 1   
     4     1    22 1   
     5     2    10 1   
     6     2    23 1   
     7     2    24 1   
     8     3    13 ar  
     9     3    14 ar  
    10     3    25 1   
    11     4    14 ar  
    12     4    15 1   
    13     4    17 ar  
    14     5    17 1   
    15     5    19 1   
    16     5    20 1   
    17     5    21 1   
    18     6     7 1   
    19     6    26 1   
    20     6    27 1   
    21     6    28 1   
    22     7     8 1   
    23     7    29 1   
    24     7    30 1   
    25     8    12 1   
    26     8    31 1   
    27     9    32 1   
    28    10    11 2   
    29    10    12 1   
    30    12    13 1   
    31    13    18 ar  
    32    14    33 1   
    33    15    16 3   
    34    17    18 ar  
    35    18    34 1   
@<TRIPOS>SUBSTRUCTURE
     1 97A         1 TEMP              0 ****  ****    0 ROOT
