@<TRIPOS>MOLECULE
molecule
   34    35     1     0     0
SMALL
bcc


@<TRIPOS>ATOM
      1 C5           0.0000     0.0000     0.0000 c3         1 97A       0.133100
      2 C8           1.5460     0.0000     0.0000 c3         1 97A      -0.200400
      3 C13          1.0230     0.7090     4.3720 ca         1 97A      -0.097000
      4 C15          0.8860    -0.6150     6.3700 ca         1 97A       0.030000
      5 C20          0.5670    -3.1090     6.2660 c3         1 97A       0.674200
      6 C1          -2.7820    -0.3300     1.1120 c3         1 97A      -0.089100
      7 C2          -1.5660     0.0080     1.9770 c3         1 97A      -0.089400
      8 C3          -0.3150    -0.6330     1.3730 c3         1 97A       0.117700
      9 O7          -0.5110     1.3330    -0.0780 oh         1 97A      -0.591800
     10 C9           1.9170     0.0000     1.4670 c          1 97A       0.713500
     11 O10          3.0130     0.2780     1.9060 o          1 97A      -0.607500
     12 N11          0.8550    -0.3530     2.2120 n          1 97A      -0.410000
     13 C12          0.8660    -0.4400     3.6040 ca         1 97A       0.088600
     14 C14          1.0340     0.6270     5.7450 ca         1 97A      -0.087000
     15 C16          0.8960    -0.7050     7.7990 cg         1 97A       0.221800
     16 N17          0.8860    -0.7700     8.9330 n1         1 97A      -0.326800
     17 C18          0.7270    -1.7680     5.5970 ca         1 97A      -0.142300
     18 C19          0.7180    -1.6780     4.2220 ca         1 97A      -0.098000
     19 F21         -0.5690    -3.0900     7.0810 f          1 97A      -0.216633
     20 F22          0.4260    -4.1030     5.2910 f          1 97A      -0.216633
     21 F23          1.6960    -3.3790     7.0460 f          1 97A      -0.216633
     22 H1          -0.3840    -0.6160    -0.8040 h1         1 97A       0.054700
     23 H2           1.9240     0.8920    -0.4850 hc         1 97A       0.086700
     24 H3           1.9240    -0.8920    -0.4850 hc         1 97A       0.086700
     25 H4           1.1380     1.6710     3.8870 ha         1 97A       0.159000
     26 H5          -2.9100     0.4350     0.3550 hc         1 97A       0.038033
     27 H6          -2.6290    -1.2900     0.6330 hc         1 97A       0.038033
     28 H7          -3.6670    -0.3740     1.7350 hc         1 97A       0.038033
     29 H8          -1.4380     1.0830     2.0160 hc         1 97A       0.060700
     30 H9          -1.7190    -0.3730     2.9800 hc         1 97A       0.060700
     31 H10         -0.4500    -1.7030     1.2670 h1         1 97A       0.063700
     32 H11         -0.4670     1.6350    -0.9700 ho         1 97A       0.410000
     33 H12          1.1560     1.5230     6.3420 ha         1 97A       0.155000
     34 H13          0.5950    -2.5710     3.6220 ha         1 97A       0.161000
@<TRIPOS>BOND
     1     1     2 1
     2     1     9 1
     3     1     8 1
     4    11    10 2
     5     2    10 1
     6    10    12 1
     7     3    14 ar
     8     3    13 ar
     9    14     4 ar
    10    12     8 1
    11    12    13 1
    12     8     7 1
    13    13    18 ar
    14    19     5 1
    15     4    15 1
    16     4    17 ar
    17    21     5 1
    18    15    16 3
    19    18    17 ar
    20    17     5 1
    21     5    20 1
    22     7     6 1
    23     1    22 1
    24     2    23 1
    25     2    24 1
    26     3    25 1
    27     6    26 1
    28     6    27 1
    29     6    28 1
    30     7    29 1
    31     7    30 1
    32     8    31 1
    33     9    32 1
    34    14    33 1
    35    18    34 1
@<TRIPOS>SUBSTRUCTURE
     1 97A         1 TEMP              0 ****  ****    0 ROOT
