@<TRIPOS>MOLECULE
97B
   65    70     1     0     0
SMALL
bcc


@<TRIPOS>ATOM
      1 O1          0.1270    0.5740    0.3050 o         1 97B     -0.596100
      2 C20         1.3550    0.3780    0.4060 c         1 97B      0.665700
      3 N5          1.9400    0.1680    1.6560 n         1 97B     -0.452800
      4 C24         3.2160   -0.4920    1.8060 c3        1 97B      0.078500
      5 C23         3.1140   -1.9230    2.3800 c3        1 97B      0.142800
      6 N6          2.2890   -1.9980    3.5770 n3        1 97B     -0.732600
      7 C25         2.1790   -3.3450    4.0880 c3        1 97B      0.157100
      8 C22         0.9920   -1.3590    3.4060 c3        1 97B      0.142800
      9 C21         1.0950    0.0690    2.8290 c3        1 97B      0.078500
     10 C17         2.2290    0.4480   -0.8000 ca        1 97B     -0.146600
     11 C18         1.8590   -0.2750   -1.9390 ca        1 97B     -0.080000
     12 C19         2.6260   -0.2040   -3.0950 ca        1 97B     -0.147500
     13 C16         3.3580    1.2700   -0.8400 ca        1 97B     -0.080000
     14 C15         4.1260    1.3650   -1.9970 ca        1 97B     -0.147500
     15 C14         3.7780    0.6160   -3.1400 ca        1 97B      0.154600
     16 N4          4.4940    0.7370   -4.3510 nh        1 97B     -0.714300
     17 C13         5.8760    0.4840   -4.4460 ca        1 97B      0.878900
     18 N3          6.3740    0.3260   -5.7320 nb        1 97B     -0.745000
     19 N2          6.6500    0.4510   -3.2910 nb        1 97B     -0.730000
     20 C12         7.9680    0.3080   -3.4730 ca        1 97B      0.477200
     21 C9          8.5740    0.1710   -4.7390 ca        1 97B     -0.368900
     22 C10         7.7140    0.1750   -5.8640 cp        1 97B      0.540800
     23 C8         10.0560    0.0870   -4.8720 c3        1 97B      0.163100
     24 N1         10.6170    1.2040   -5.5910 n2        1 97B     -0.547900
     25 C7         10.2950    1.4190   -6.8230 ce        1 97B      0.522500
     26 C2          9.4400    0.5590   -7.6780 ca        1 97B     -0.139900
     27 C3          8.2470   -0.0330   -7.2280 cp        1 97B     -0.128500
     28 C4          7.5180   -0.8570   -8.1030 ca        1 97B     -0.086000
     29 C5          7.9630   -1.1030   -9.3970 ca        1 97B     -0.122000
     30 C1          9.8840    0.3120   -8.9860 ca        1 97B     -0.106000
     31 C6          9.1530   -0.5150   -9.8370 ca        1 97B      0.026400
     32 CL1         9.7100   -0.8090  -11.4140 cl        1 97B     -0.081400
     33 C11        10.8580    2.6150   -7.5030 ca        1 97B     -0.205900
     34 C26        12.1790    2.6090   -7.9980 ca        1 97B      0.175400
     35 F2         12.9440    1.4980   -7.8800 f         1 97B     -0.125400
     36 C27        12.7150    3.7470   -8.6290 ca        1 97B     -0.184000
     37 C28        11.9380    4.8930   -8.7550 ca        1 97B     -0.073000
     38 C29        10.6380    4.9310   -8.2640 ca        1 97B     -0.184000
     39 C30        10.0970    3.7950   -7.6300 ca        1 97B      0.175400
     40 F1          8.8360    3.8540   -7.1440 f         1 97B     -0.125400
     41 H24         3.8380    0.1360    2.5080 h1        1 97B      0.067450
     42 H24A        3.7520   -0.5560    0.8200 h1        1 97B      0.067450
     43 H23         2.7380   -2.6140    1.5690 h1        1 97B      0.039700
     44 H23A        4.1530   -2.2540    2.6590 h1        1 97B      0.039700
     45 H25         1.6520   -4.0480    3.3850 h1        1 97B      0.033367
     46 H25A        3.2090   -3.7420    4.2840 h1        1 97B      0.033367
     47 H25B        1.6110   -3.3170    5.0550 h1        1 97B      0.033367
     48 H22         0.3090   -1.9690    2.7460 h1        1 97B      0.039700
     49 H22A        0.5120   -1.2840    4.4210 h1        1 97B      0.039700
     50 H21         1.5360    0.7500    3.6120 h1        1 97B      0.067450
     51 H21A        0.0550    0.4250    2.5850 h1        1 97B      0.067450
     52 H18         0.9490   -0.8950   -1.9170 ha        1 97B      0.149000
     53 H19         2.3190   -0.7860   -3.9780 ha        1 97B      0.149000
     54 H16         3.6400    1.8610    0.0460 ha        1 97B      0.149000
     55 H15         5.0020    2.0320   -2.0070 ha        1 97B      0.149000
     56 HN4         3.9660    0.5270   -5.1740 hn        1 97B      0.446800
     57 H12         8.5780    0.2990   -2.5500 h4        1 97B      0.034100
     58 H8         10.3310   -0.8940   -5.3620 h1        1 97B      0.069200
     59 H8A        10.5370    0.1050   -3.8510 h1        1 97B      0.069200
     60 H4          6.5770   -1.3200   -7.7660 ha        1 97B      0.156000
     61 H5          7.3800   -1.7540  -10.0670 ha        1 97B      0.153000
     62 H1         10.8260    0.7710   -9.3320 ha        1 97B      0.158000
     63 H27        13.7460    3.7170   -9.0090 ha        1 97B      0.157000
     64 H28        12.3590    5.7840   -9.2470 ha        1 97B      0.146000
     65 H29        10.0240    5.8380   -8.3570 ha        1 97B      0.157000
@<TRIPOS>BOND
     1    1    2 2
     2    2    3 1
     3    2   10 1
     4    3    4 1
     5    3    9 1
     6    4    5 1
     7    4   41 1
     8    4   42 1
     9    5    6 1
    10    5   43 1
    11    5   44 1
    12    6    7 1
    13    6    8 1
    14    7   45 1
    15    7   46 1
    16    7   47 1
    17    8    9 1
    18    8   48 1
    19    8   49 1
    20    9   50 1
    21    9   51 1
    22   10   11 ar
    23   10   13 ar
    24   11   12 ar
    25   11   52 1
    26   12   15 ar
    27   12   53 1
    28   13   14 ar
    29   13   54 1
    30   14   15 ar
    31   14   55 1
    32   15   16 1
    33   16   17 1
    34   16   56 1
    35   17   18 ar
    36   17   19 ar
    37   18   22 ar
    38   19   20 ar
    39   20   21 ar
    40   20   57 1
    41   21   22 ar
    42   21   23 1
    43   22   27 1
    44   23   24 1
    45   23   58 1
    46   23   59 1
    47   24   25 2
    48   25   26 1
    49   25   33 1
    50   26   27 ar
    51   26   30 ar
    52   27   28 ar
    53   28   29 ar
    54   28   60 1
    55   29   31 ar
    56   29   61 1
    57   30   31 ar
    58   30   62 1
    59   31   32 1
    60   33   34 ar
    61   33   39 ar
    62   34   35 1
    63   34   36 ar
    64   36   37 ar
    65   36   63 1
    66   37   38 ar
    67   37   64 1
    68   38   39 ar
    69   38   65 1
    70   39   40 1
@<TRIPOS>SUBSTRUCTURE
     1 97B         1 TEMP              0 ****  ****    0 ROOT
