@<TRIPOS>MOLECULE
97E
   51    56     1     0     0
SMALL
bcc


@<TRIPOS>ATOM
      1 C4           0.0000     0.0000     0.0000 ca         1 97E       0.377300
      2 C5           1.4000     0.0000     0.0000 ca         1 97E      -0.294600
      3 C6           2.0550     0.0000     1.2180 ca         1 97E       0.458200
      4 N1           1.3420     0.0000     2.3350 nb         1 97E      -0.644000
      5 N3          -0.6430     0.0060     1.1670 nb         1 97E      -0.650000
      6 CAZ         -7.5840    -1.6290    -6.3630 c          1 97E       0.601500
      7 NBB         -8.8500    -1.4260    -6.7750 ns         1 97E       0.020900
      8 CBC         -9.3090    -0.2380    -6.2110 ca         1 97E      -0.189400
      9 CBH        -10.5090     0.4450    -6.2870 ca         1 97E      -0.052000
     10 CBG        -10.6700     1.6430    -5.5880 ca         1 97E       0.059000
     11 CBI        -11.9100     2.3550    -5.6620 cg         1 97E       0.231800
     12 NBJ        -12.9030     2.9030    -5.7170 n1         1 97E      -0.379800
     13 CBF         -9.6180     2.1470    -4.8160 ca         1 97E      -0.076000
     14 CBE         -8.4260     1.4650    -4.7420 ca         1 97E      -0.095000
     15 CBD         -8.2620     0.2720    -5.4370 ca         1 97E      -0.160400
     16 NAY         -7.2050    -0.6250    -5.5510 n          1 97E       0.105800
     17 CAV         -6.1500     0.0340    -4.6630 ca         1 97E      -0.064400
     18 CAW         -5.0050     0.3330    -5.3940 ca         1 97E      -0.094000
     19 CAX         -3.7720     0.3250    -4.7810 ca         1 97E      -0.084000
     20 CAU         -6.0540    -0.2750    -3.3110 ca         1 97E      -0.094000
     21 CAT         -4.8220    -0.2890    -2.6920 ca         1 97E      -0.084000
     22 CAS         -3.6720     0.0150    -3.4230 ca         1 97E      -0.067500
     23 CAI         -2.3500     0.0050    -2.7620 cc         1 97E       0.227000
     24 NAJ         -1.1760    -0.0020    -3.3600 nd         1 97E      -0.310000
     25 NAK         -0.2360    -0.0050    -2.4840 nd         1 97E      -0.308000
     26 CAL         -0.7510     0.0010    -1.2720 cc         1 97E       0.116500
     27 C2           0.0240     0.0010     2.3010 ca         1 97E       0.634900
     28 NAH         -2.1170     0.0070    -1.4130 na         1 97E       0.307200
     29 CAC         -3.0730     0.0190    -0.3880 ca         1 97E      -0.188200
     30 CAB         -3.5410     1.2270     0.1130 ca         1 97E       0.011400
     31 ClA         -2.9430     2.7250    -0.5290 cl         1 97E       0.006600
     32 CAG         -4.4850     1.2350     1.1240 ca         1 97E      -0.123000
     33 CAF         -4.9610     0.0420     1.6350 ca         1 97E      -0.117000
     34 CAE         -4.4960    -1.1620     1.1370 ca         1 97E      -0.080000
     35 CAD         -3.5580    -1.1770     0.1250 ca         1 97E      -0.031000
     36 H1           1.6980    -0.0300    -1.0410 ha         1 97E       0.160000
     37 H2           3.0980     0.0500     1.5080 h4         1 97E      -0.002900
     38 H3          -9.1860    -1.9680    -7.5470 hn         1 97E       0.198500
     39 H4         -11.0720    -0.0590    -7.0640 ha         1 97E       0.118000
     40 H5          -9.5150     3.1470    -4.4110 ha         1 97E       0.121000
     41 H6          -7.7080     1.7560    -3.9850 ha         1 97E       0.125000
     42 H7          -5.0680     0.4380    -6.4710 ha         1 97E       0.122000
     43 H8          -2.9060     0.7190    -5.2980 ha         1 97E       0.133000
     44 H9          -6.9090    -0.8880    -3.0530 ha         1 97E       0.122000
     45 H10         -4.9940    -0.3690    -1.6260 ha         1 97E       0.133000
     46 H11         -0.5710     0.1120     3.2000 h5         1 97E      -0.000900
     47 H12         -5.1660     1.9430     1.5800 ha         1 97E       0.134000
     48 H13         -5.5260     0.3110     2.5200 ha         1 97E       0.120000
     49 H14         -4.9840    -1.9310     1.7240 ha         1 97E       0.121000
     50 H15         -3.5130    -1.9920    -0.5880 ha         1 97E       0.121000
     51 OBA         -6.8900    -2.5780    -6.6740 o          1 97E      -0.697500
@<TRIPOS>BOND
     1     1     2 ar  
     2     1     5 ar  
     3     1    26 1   
     4     2     3 ar  
     5     2    36 1   
     6     3     4 ar  
     7     3    37 1   
     8     4    27 ar  
     9     5    27 ar  
    10     6     7 1   
    11     6    16 1   
    12     6    51 2   
    13     7     8 1   
    14     7    38 1   
    15     8     9 ar  
    16     8    15 ar  
    17     9    10 ar  
    18     9    39 1   
    19    10    11 1   
    20    10    13 ar  
    21    11    12 3   
    22    13    14 ar  
    23    13    40 1   
    24    14    15 ar  
    25    14    41 1   
    26    15    16 1   
    27    16    17 1   
    28    17    18 ar  
    29    17    20 ar  
    30    18    19 ar  
    31    18    42 1   
    32    19    22 ar  
    33    19    43 1   
    34    20    21 ar  
    35    20    44 1   
    36    21    22 ar  
    37    21    45 1   
    38    22    23 1   
    39    23    24 2   
    40    23    28 1   
    41    24    25 1   
    42    25    26 2   
    43    26    28 1   
    44    27    46 1   
    45    28    29 1   
    46    29    30 ar  
    47    29    35 ar  
    48    30    31 1   
    49    30    32 ar  
    50    32    33 ar  
    51    32    47 1   
    52    33    34 ar  
    53    33    48 1   
    54    34    35 ar  
    55    34    49 1   
    56    35    50 1   
@<TRIPOS>SUBSTRUCTURE
     1 97E         1 TEMP              0 ****  ****    0 ROOT
