@<TRIPOS>MOLECULE
molecule
   51    56     1     0     0
SMALL
bcc


@<TRIPOS>ATOM
      1 C4           0.0000     0.0000     0.0000 ca         1 97E       0.418300
      2 C5           1.4000     0.0000     0.0000 ca         1 97E      -0.325600
      3 C6           2.0550     0.0000     1.2180 ca         1 97E       0.464200
      4 N1           1.3420     0.0000     2.3350 nb         1 97E      -0.736000
      5 N3          -0.6430     0.0060     1.1670 nb         1 97E      -0.745000
      6 CAZ         -7.5840    -1.6290    -6.3630 c          1 97E       0.828500
      7 NBB         -8.8500    -1.4260    -6.7750 ns         1 97E      -0.439100
      8 CBC         -9.3090    -0.2380    -6.2110 ca         1 97E      -0.031400
      9 CBH        -10.5090     0.4450    -6.2870 ca         1 97E      -0.085000
     10 CBG        -10.6700     1.6430    -5.5880 ca         1 97E       0.006000
     11 CBI        -11.9100     2.3550    -5.6620 cg         1 97E       0.242800
     12 NBJ        -12.9030     2.9030    -5.7170 n1         1 97E      -0.359800
     13 CBF         -9.6180     2.1470    -4.8160 ca         1 97E      -0.090000
     14 CBE         -8.4260     1.4650    -4.7420 ca         1 97E      -0.135000
     15 CBD         -8.2620     0.2720    -5.4370 ca         1 97E      -0.022400
     16 NAY         -7.2050    -0.6250    -5.5510 n          1 97E      -0.311200
     17 CAV         -6.1500     0.0340    -4.6630 ca         1 97E       0.072600
     18 CAW         -5.0050     0.3330    -5.3940 ca         1 97E      -0.126500
     19 CAX         -3.7720     0.3250    -4.7810 ca         1 97E      -0.094000
     20 CAU         -6.0540    -0.2750    -3.3110 ca         1 97E      -0.126500
     21 CAT         -4.8220    -0.2890    -2.6920 ca         1 97E      -0.094000
     22 CAS         -3.6720     0.0150    -3.4230 ca         1 97E      -0.087500
     23 CAI         -2.3500     0.0050    -2.7620 cd         1 97E       0.435000
     24 NAJ         -1.1760    -0.0020    -3.3600 nc         1 97E      -0.334000
     25 NAK         -0.2360    -0.0050    -2.4840 nc         1 97E      -0.333000
     26 CAL         -0.7510     0.0010    -1.2720 cd         1 97E       0.329500
     27 C2           0.0240     0.0010     2.3010 ca         1 97E       0.677900
     28 NAH         -2.1170     0.0070    -1.4130 na         1 97E      -0.226800
     29 CAC         -3.0730     0.0190    -0.3880 ca         1 97E      -0.003200
     30 CAB         -3.5410     1.2270     0.1130 ca         1 97E       0.062400
     31 ClA         -2.9430     2.7250    -0.5290 cl         1 97E      -0.083400
     32 CAG         -4.4850     1.2350     1.1240 ca         1 97E      -0.140000
     33 CAF         -4.9610     0.0420     1.6350 ca         1 97E      -0.149000
     34 CAE         -4.4960    -1.1620     1.1370 ca         1 97E      -0.115000
     35 CAD         -3.5580    -1.1770     0.1250 ca         1 97E      -0.075000
     36 H1           1.6980    -0.0300    -1.0410 ha         1 97E       0.184000
     37 H2           3.0980     0.0500     1.5080 h4         1 97E       0.046100
     38 H3          -9.1860    -1.9680    -7.5470 hn         1 97E       0.368500
     39 H4         -11.0720    -0.0590    -7.0640 ha         1 97E       0.150000
     40 H5          -9.5150     3.1470    -4.4110 ha         1 97E       0.153000
     41 H6          -7.7080     1.7560    -3.9850 ha         1 97E       0.151000
     42 H7          -5.0680     0.4380    -6.4710 ha         1 97E       0.157500
     43 H8          -2.9060     0.7190    -5.2980 ha         1 97E       0.162000
     44 H9          -6.9090    -0.8880    -3.0530 ha         1 97E       0.157500
     45 H10         -4.9940    -0.3690    -1.6260 ha         1 97E       0.162000
     46 H11         -0.5710     0.1120     3.2000 h5         1 97E       0.061100
     47 H12         -5.1660     1.9430     1.5800 ha         1 97E       0.159000
     48 H13         -5.5260     0.3110     2.5200 ha         1 97E       0.148000
     49 H14         -4.9840    -1.9310     1.7240 ha         1 97E       0.152000
     50 H15         -3.5130    -1.9920    -0.5880 ha         1 97E       0.154000
     51 OBA         -6.8900    -2.5780    -6.6740 o          1 97E      -0.636500
@<TRIPOS>BOND
     1     2     3 ar
     2     2     1 ar
     3     3     4 ar
     4    25    24 1
     5    25    26 2
     6    24    23 2
     7     1    26 1
     8     1     5 ar
     9    26    28 1
    10     4    27 ar
    11    23    28 1
    12    23    22 1
    13    31    30 1
    14    28    29 1
    15     5    27 ar
    16    19    22 ar
    17    19    18 ar
    18    22    21 ar
    19    51     6 2
    20    18    17 ar
    21    21    20 ar
    22    30    29 ar
    23    30    32 ar
    24    29    35 ar
    25    17    20 ar
    26    17    16 1
    27     6    16 1
    28     6     7 1
    29    16    15 1
    30    32    33 ar
    31    35    34 ar
    32     7     8 1
    33    15     8 ar
    34    15    14 ar
    35    33    34 ar
    36     8     9 ar
    37    14    13 ar
    38     9    10 ar
    39    13    10 ar
    40    10    11 1
    41    11    12 3
    42     2    36 1
    43     3    37 1
    44     7    38 1
    45     9    39 1
    46    13    40 1
    47    14    41 1
    48    18    42 1
    49    19    43 1
    50    20    44 1
    51    21    45 1
    52    27    46 1
    53    32    47 1
    54    33    48 1
    55    34    49 1
    56    35    50 1
@<TRIPOS>SUBSTRUCTURE
     1 97E         1 TEMP              0 ****  ****    0 ROOT
