@<TRIPOS>MOLECULE
97H
   29    31     1     0     0
SMALL
bcc


@<TRIPOS>ATOM
      1 CAG          0.0000     0.0000     0.0000 ca         1 97H      -0.057000
      2 CAB          1.3860     0.0000     0.0000 ca         1 97H       0.025600
      3 NAA          2.0850     0.0010    -1.2100 nv         1 97H      -0.559200
      4 CAC          2.0810     0.0000     1.2040 ca         1 97H      -0.093000
      5 CAD          1.3950    -0.0010     2.4030 ca         1 97H      -0.096000
      6 CAE          0.0150    -0.0010     2.4140 ca         1 97H      -0.101000
      7 CAF         -0.6920     0.0050     1.2110 ca         1 97H      -0.154900
      8 CAH         -2.1700     0.0050     1.2200 cc         1 97H       0.361500
      9 NAI         -2.8010     0.0110     0.0740 nd         1 97H      -0.538100
     10 CAJ         -4.1470     0.0110     0.0060 ca         1 97H       0.157400
     11 CAO         -4.8180     0.0180    -1.2210 ca         1 97H      -0.099000
     12 CAN         -6.1840     0.0170    -1.2470 ca         1 97H      -0.064000
     13 CAM         -6.9230     0.0090    -0.0710 ca         1 97H      -0.130000
     14 CAL         -6.2900     0.0020     1.1530 ca         1 97H      -0.015000
     15 CAK         -4.8970     0.0030     1.2050 ca         1 97H      -0.218600
     16 CAP         -4.1680    -0.0050     2.4810 c          1 97H       0.621100
     17 OAQ         -4.7570    -0.0140     3.5450 o          1 97H      -0.666500
     18 NAR         -2.8150    -0.0080     2.4270 ns         1 97H      -0.018400
     19 H1          -0.5440     0.0050    -0.9370 ha         1 97H       0.135000
     20 H2           2.3320     0.8680    -1.6450 hn         1 97H       0.275800
     21 H3           2.3300    -0.8650    -1.6470 hn         1 97H       0.275800
     22 H4           3.1650     0.0000     1.2020 ha         1 97H       0.110000
     23 H5           1.9430    -0.0030     3.3380 ha         1 97H       0.106000
     24 H6          -0.5190     0.0010     3.3570 ha         1 97H       0.102000
     25 H7          -4.2570     0.0240    -2.1470 ha         1 97H       0.118000
     26 H8          -6.6990     0.0230    -2.2010 ha         1 97H       0.102000
     27 H9          -8.0050     0.0090    -0.1160 ha         1 97H       0.107000
     28 H10         -6.8700    -0.0040     2.0680 ha         1 97H       0.124000
     29 H11         -2.2840    -0.0200     3.2750 hn         1 97H       0.190500
@<TRIPOS>BOND
     1     1     2 ar  
     2     1     7 ar  
     3     1    19 1   
     4     2     3 1   
     5     2     4 ar  
     6     3    20 1   
     7     3    21 1   
     8     4     5 ar  
     9     4    22 1   
    10     5     6 ar  
    11     5    23 1   
    12     6     7 ar  
    13     6    24 1   
    14     7     8 1   
    15     8     9 2   
    16     8    18 1   
    17     9    10 1   
    18    10    11 ar  
    19    10    15 ar  
    20    11    12 ar  
    21    11    25 1   
    22    12    13 ar  
    23    12    26 1   
    24    13    14 ar  
    25    13    27 1   
    26    14    15 ar  
    27    14    28 1   
    28    15    16 1   
    29    16    17 2   
    30    16    18 1   
    31    18    29 1   
@<TRIPOS>SUBSTRUCTURE
     1 97H         1 TEMP              0 ****  ****    0 ROOT
