@<TRIPOS>MOLECULE
molecule
   30    33     1     0     0
SMALL
bcc


@<TRIPOS>ATOM
      1 CAT          0.0000     0.0000     0.0000 ca         1 97K       0.026000
      2 CAS          1.4070     0.0000     0.0000 ca         1 97K      -0.214000
      3 CAR          2.3800     0.0000     0.9850 cc         1 97K      -0.089100
      4 NAQ          3.5750     0.0010     0.3810 na         1 97K       0.028800
      5 NAP          3.4090     0.0020    -1.0080 nc         1 97K      -0.269400
      6 CAO          2.1200     0.0010    -1.2880 ca         1 97K      -0.024000
      7 CAN          1.3670     0.0010    -2.4850 ca         1 97K      -0.102000
      8 CAM          0.0160    -0.0000    -2.4320 ca         1 97K      -0.092000
      9 CAL         -0.6780     0.0000    -1.2040 ca         1 97K      -0.200900
     10 CAD         -2.1530    -0.0070    -1.2050 cc         1 97K       0.570500
     11 NAE         -2.7780    -0.0130    -0.0560 nd         1 97K      -0.665100
     12 CAF         -4.1250    -0.0180     0.0180 ca         1 97K       0.205400
     13 CAG         -4.7880    -0.0240     1.2480 ca         1 97K      -0.128000
     14 CAH         -6.1640    -0.0290     1.2810 ca         1 97K      -0.091000
     15 CAI         -6.9030    -0.0290     0.1060 ca         1 97K      -0.159000
     16 CAJ         -6.2720    -0.0240    -1.1200 ca         1 97K      -0.049000
     17 CAK         -4.8810    -0.0180    -1.1760 ca         1 97K      -0.212600
     18 CAB         -4.1570    -0.0110    -2.4560 c          1 97K       0.709100
     19 OAA         -4.7530    -0.0110    -3.5180 o          1 97K      -0.626500
     20 NAC         -2.8050    -0.0000    -2.4090 ns         1 97K      -0.472400
     21 H1          -0.5470     0.0000     0.9350 ha         1 97K       0.161000
     22 H2           2.2050    -0.0010     2.0540 h4         1 97K       0.181000
     23 H3           4.4570     0.0020     0.8540 hn         1 97K       0.335700
     24 H4           1.8720     0.0000    -3.4430 ha         1 97K       0.146000
     25 H5          -0.5480     0.0000    -3.3570 ha         1 97K       0.126000
     26 H6          -4.2220    -0.0240     2.1720 ha         1 97K       0.146000
     27 H7          -6.6760    -0.0330     2.2350 ha         1 97K       0.133000
     28 H8          -7.9850    -0.0330     0.1520 ha         1 97K       0.135000
     29 H9          -6.8550    -0.0240    -2.0330 ha         1 97K       0.154000
     30 H10         -2.2780     0.0130    -3.2600 hn         1 97K       0.339500
@<TRIPOS>BOND
     1     4     5 1
     2     4     3 1
     3     5     6 2
     4     3     2 2
     5     6     2 ar
     6     6     7 ar
     7     2     1 ar
     8     7     8 ar
     9     1     9 ar
    10     8     9 ar
    11     9    10 1
    12    10    11 2
    13    10    20 1
    14    11    12 1
    15    20    18 1
    16    12    13 ar
    17    12    17 ar
    18    13    14 ar
    19    18    17 1
    20    18    19 2
    21    17    16 ar
    22    14    15 ar
    23    16    15 ar
    24     1    21 1
    25     3    22 1
    26     4    23 1
    27     7    24 1
    28     8    25 1
    29    13    26 1
    30    14    27 1
    31    15    28 1
    32    16    29 1
    33    20    30 1
@<TRIPOS>SUBSTRUCTURE
     1 97K         1 TEMP              0 ****  ****    0 ROOT
