@<TRIPOS>MOLECULE
97K
   30    33     1     0     0
SMALL
bcc


@<TRIPOS>ATOM
      1 CAT          0.0000     0.0000     0.0000 ca         1 97K       0.057000
      2 CAS          1.4070     0.0000     0.0000 ca         1 97K      -0.216000
      3 CAR          2.3800     0.0000     0.9850 cc         1 97K      -0.259100
      4 NAQ          3.5750     0.0010     0.3810 na         1 97K       0.560800
      5 NAP          3.4090     0.0020    -1.0080 nc         1 97K      -0.440400
      6 CAO          2.1200     0.0010    -1.2880 ca         1 97K       0.009000
      7 CAN          1.3670     0.0010    -2.4850 ca         1 97K      -0.075000
      8 CAM          0.0160    -0.0000    -2.4320 ca         1 97K      -0.075000
      9 CAL         -0.6780     0.0000    -1.2040 ca         1 97K      -0.215900
     10 CAD         -2.1530    -0.0070    -1.2050 cc         1 97K       0.377500
     11 NAE         -2.7780    -0.0130    -0.0560 nd         1 97K      -0.556100
     12 CAF         -4.1250    -0.0180     0.0180 ca         1 97K       0.162400
     13 CAG         -4.7880    -0.0240     1.2480 ca         1 97K      -0.104000
     14 CAH         -6.1640    -0.0290     1.2810 ca         1 97K      -0.062000
     15 CAI         -6.9030    -0.0290     0.1060 ca         1 97K      -0.134000
     16 CAJ         -6.2720    -0.0240    -1.1200 ca         1 97K      -0.013000
     17 CAK         -4.8810    -0.0180    -1.1760 ca         1 97K      -0.221600
     18 CAB         -4.1570    -0.0110    -2.4560 c          1 97K       0.621100
     19 OAA         -4.7530    -0.0110    -3.5180 o          1 97K      -0.668500
     20 NAC         -2.8050    -0.0000    -2.4090 ns         1 97K      -0.020400
     21 H1          -0.5470     0.0000     0.9350 ha         1 97K       0.126000
     22 H2           2.2050    -0.0010     2.0540 h4         1 97K       0.151000
     23 H3           4.4570     0.0020     0.8540 hn         1 97K       0.141700
     24 H4           1.8720     0.0000    -3.4430 ha         1 97K       0.115000
     25 H5          -0.5480     0.0000    -3.3570 ha         1 97K       0.100000
     26 H6          -4.2220    -0.0240     2.1720 ha         1 97K       0.117000
     27 H7          -6.6760    -0.0330     2.2350 ha         1 97K       0.101000
     28 H8          -7.9850    -0.0330     0.1520 ha         1 97K       0.107000
     29 H9          -6.8550    -0.0240    -2.0330 ha         1 97K       0.123000
     30 H10         -2.2780     0.0130    -3.2600 hn         1 97K       0.191500
@<TRIPOS>BOND
     1     1     2 ar  
     2     1     9 ar  
     3     1    21 1   
     4     2     3 2   
     5     2     6 ar  
     6     3     4 1   
     7     3    22 1   
     8     4     5 1   
     9     4    23 1   
    10     5     6 2   
    11     6     7 ar  
    12     7     8 ar  
    13     7    24 1   
    14     8     9 ar  
    15     8    25 1   
    16     9    10 1   
    17    10    11 2   
    18    10    20 1   
    19    11    12 1   
    20    12    13 ar  
    21    12    17 ar  
    22    13    14 ar  
    23    13    26 1   
    24    14    15 ar  
    25    14    27 1   
    26    15    16 ar  
    27    15    28 1   
    28    16    17 ar  
    29    16    29 1   
    30    17    18 1   
    31    18    19 2   
    32    18    20 1   
    33    20    30 1   
@<TRIPOS>SUBSTRUCTURE
     1 97K         1 TEMP              0 ****  ****    0 ROOT
