@<TRIPOS>MOLECULE
molecule
   59    58     1     0     0
SMALL
bcc


@<TRIPOS>ATOM
      1 C19          0.0000     0.0000     0.0000 c3         1 97M      -0.092100
      2 C8           7.5700    -1.8590     3.6990 c3         1 97M      -0.149200
      3 C7           9.0930    -1.8380     3.8380 c3         1 97M      -0.034400
      4 C15          1.5300     0.0000     0.0000 c3         1 97M      -0.084400
      5 C9           6.9610    -0.9140     4.7020 c2         1 97M      -0.338200
      6 C6           9.7120    -2.7970     2.8190 c3         1 97M      -0.087400
      7 C21         17.6900    -5.3530     0.5830 c3         1 97M       0.137400
      8 C14          2.0380     0.0000     1.4440 c3         1 97M      -0.079400
      9 C10          6.1090    -0.0010     4.3090 c2         1 97M      -0.344200
     10 C5          11.2350    -2.7760     2.9570 c3         1 97M      -0.078400
     11 C13          3.5680     0.0000     1.4450 c3         1 97M      -0.087400
     12 C11          5.6080    -0.0000     2.8880 c3         1 97M      -0.145200
     13 C4          11.8530    -3.7370     1.9390 c3         1 97M      -0.083400
     14 C12          4.0780    -0.0000     2.8870 c3         1 97M      -0.034400
     15 C3          13.3760    -3.7150     2.0760 c3         1 97M      -0.072400
     16 C2          13.9950    -4.6750     1.0570 c3         1 97M      -0.126400
     17 C24         19.8980    -6.1260    -0.2960 c3         1 97M       0.130400
     18 C22         18.3810    -6.2930    -0.4070 c3         1 97M       0.149100
     19 O19         16.0170    -3.9450     2.0210 o          1 97M      -0.550000
     20 C1          15.4950    -4.6540     1.1940 c          1 97M       0.632100
     21 O20         16.2520    -5.4240     0.3960 os         1 97M      -0.427900
     22 O23         18.0260    -7.6440    -0.1080 oh         1 97M      -0.591800
     23 O25         20.5380    -6.9160    -1.3010 oh         1 97M      -0.605800
     24 H1          -0.3610    -0.8800     0.5180 hc         1 97M       0.034033
     25 H2          -0.3610     0.8890     0.5030 hc         1 97M       0.034033
     26 H3          -0.3610    -0.0090    -1.0210 hc         1 97M       0.034033
     27 H4           7.2050    -2.8630     3.8810 hc         1 97M       0.034200
     28 H5           7.2940    -1.5500     2.6980 hc         1 97M       0.034200
     29 H6           9.4580    -0.8340     3.6560 hc         1 97M       0.059200
     30 H7           9.3690    -2.1470     4.8390 hc         1 97M       0.059200
     31 H8           1.8910    -0.8850    -0.5100 hc         1 97M       0.040200
     32 H9           1.8910     0.8850    -0.5100 hc         1 97M       0.040200
     33 H10          6.4400    -1.8120     4.3940 ha         1 97M       0.331000
     34 H11          9.3470    -3.8010     3.0000 hc         1 97M       0.040700
     35 H12          9.4360    -2.4880     1.8180 hc         1 97M       0.040700
     36 H13         17.9380    -5.6500     1.5950 h1         1 97M       0.059200
     37 H14         18.0270    -4.3370     0.4130 h1         1 97M       0.059200
     38 H15          1.6770    -0.8850     1.9540 hc         1 97M       0.045200
     39 H16          1.6770     0.8840     1.9540 hc         1 97M       0.045200
     40 H17          6.6790     0.4690     3.5170 ha         1 97M       0.330000
     41 H18         11.6000    -1.7730     2.7750 hc         1 97M       0.048200
     42 H19         11.5110    -3.0850     3.9580 hc         1 97M       0.048200
     43 H20          3.9300     0.8850     0.9340 hc         1 97M       0.040200
     44 H21          3.9300    -0.8840     0.9340 hc         1 97M       0.040200
     45 H22          5.9690    -0.8840     2.3770 hc         1 97M       0.033200
     46 H23          5.9690     0.8850     2.3780 hc         1 97M       0.033200
     47 H24         11.4880    -4.7400     2.1210 hc         1 97M       0.040700
     48 H25         11.5770    -3.4280     0.9380 hc         1 97M       0.040700
     49 H26          3.7170    -0.8850     3.3970 hc         1 97M       0.058200
     50 H27          3.7160     0.8840     3.3980 hc         1 97M       0.058200
     51 H28         13.6530    -4.0240     3.0770 hc         1 97M       0.059700
     52 H29         13.7410    -2.7120     1.8950 hc         1 97M       0.059700
     53 H30         13.7190    -4.3660     0.0560 hc         1 97M       0.071700
     54 H31         13.6300    -5.6790     1.2390 hc         1 97M       0.071700
     55 H32         20.1570    -5.0830    -0.4360 h1         1 97M       0.032700
     56 H33         20.2260    -6.4510     0.6830 h1         1 97M       0.032700
     57 H34         18.0640    -6.0510    -1.4150 h1         1 97M       0.052700
     58 H35         17.6330    -8.0410    -0.8670 ho         1 97M       0.412000
     59 H36         21.4680    -6.7570    -1.2800 ho         1 97M       0.407000
@<TRIPOS>BOND
     1     1     4 1
     2     4     8 1
     3     8    11 1
     4    11    14 1
     5    14    12 1
     6    12     9 1
     7     9     5 2
     8     5     2 1
     9     2     3 1
    10     3     6 1
    11     6    10 1
    12    10    13 1
    13    13    15 1
    14    15    16 1
    15    16    20 1
    16    19    20 2
    17    20    21 1
    18    21     7 1
    19     7    18 1
    20    18    17 1
    21    18    22 1
    22    17    23 1
    23     1    24 1
    24     1    25 1
    25     1    26 1
    26     2    27 1
    27     2    28 1
    28     3    29 1
    29     3    30 1
    30     4    31 1
    31     4    32 1
    32     5    33 1
    33     6    34 1
    34     6    35 1
    35     7    36 1
    36     7    37 1
    37     8    38 1
    38     8    39 1
    39     9    40 1
    40    10    41 1
    41    10    42 1
    42    11    43 1
    43    11    44 1
    44    12    45 1
    45    12    46 1
    46    13    47 1
    47    13    48 1
    48    14    49 1
    49    14    50 1
    50    15    51 1
    51    15    52 1
    52    16    53 1
    53    16    54 1
    54    17    55 1
    55    17    56 1
    56    18    57 1
    57    22    58 1
    58    23    59 1
@<TRIPOS>SUBSTRUCTURE
     1 97M         1 TEMP              0 ****  ****    0 ROOT
