@<TRIPOS>MOLECULE
molecule
   59    58     1     0     0
SMALL
bcc


@<TRIPOS>ATOM
      1 C            0.0000     0.0000     0.0000 c3         1 97N      -0.092100
      2 O           16.1020    -3.6050     1.8960 o          1 97N      -0.551000
      3 C1           1.5300     0.0000     0.0000 c3         1 97N      -0.084400
      4 O1          16.3680    -5.0790     0.2710 os         1 97N      -0.427900
      5 C2           2.0390     0.0000     1.4430 c3         1 97N      -0.080400
      6 O2          18.2490    -5.4240    -1.8920 oh         1 97N      -0.591800
      7 C3           3.5690     0.0010     1.4450 c3         1 97N      -0.087400
      8 C4           4.0780     0.0010     2.8870 c3         1 97N      -0.034400
      9 C5           5.6080     0.0010     2.8880 c3         1 97N      -0.148200
     10 C6           6.1090     0.0010     4.3090 c2         1 97N      -0.338200
     11 C7           6.9800    -0.8970     4.6970 c2         1 97N      -0.343200
     12 C8           7.6090    -1.8230     3.6870 c3         1 97N      -0.146200
     13 C9           9.1320    -1.7460     3.8040 c3         1 97N      -0.034400
     14 C10          9.7710    -2.6860     2.7790 c3         1 97N      -0.087400
     15 C11         11.2940    -2.6090     2.8950 c3         1 97N      -0.078400
     16 C12         11.9320    -3.5480     1.8700 c3         1 97N      -0.083400
     17 C13         13.4550    -3.4720     1.9870 c3         1 97N      -0.072400
     18 C14         14.0940    -4.4110     0.9610 c3         1 97N      -0.125400
     19 C15         15.5950    -4.3360     1.0770 c          1 97N       0.632100
     20 C16         17.8050    -4.9560     0.4380 c3         1 97N       0.137400
     21 C17         18.5150    -5.8730    -0.5610 c3         1 97N       0.149100
     22 C18         20.0230    -5.8370    -0.3030 c3         1 97N       0.131400
     23 H1          -0.3610     0.0000    -1.0210 hc         1 97N       0.034033
     24 H2          -0.3610    -0.8850     0.5110 hc         1 97N       0.034033
     25 H3          -0.3610     0.8840     0.5110 hc         1 97N       0.034033
     26 H4           1.8920    -0.8850    -0.5100 hc         1 97N       0.039700
     27 H5           1.8920     0.8850    -0.5100 hc         1 97N       0.039700
     28 H6           1.6780     0.8840     1.9540 hc         1 97N       0.044700
     29 H7           1.6780    -0.8850     1.9540 hc         1 97N       0.044700
     30 H9           3.9300     0.8850     0.9340 hc         1 97N       0.040700
     31 H10          3.9310    -0.8840     0.9340 hc         1 97N       0.040700
     32 H11         21.5910    -6.8180    -0.9410 ho         1 97N       0.407000
     33 H12          3.7170     0.8860     3.3970 hc         1 97N       0.058700
     34 H13          3.7160    -0.8830     3.3980 hc         1 97N       0.058700
     35 H14          5.9700     0.8850     2.3770 hc         1 97N       0.034200
     36 H15          5.9690    -0.8840     2.3780 hc         1 97N       0.034200
     37 H16          6.6690     0.4880     3.5200 ha         1 97N       0.331000
     38 H17          6.4780    -1.8040     4.3820 ha         1 97N       0.330000
     39 H18          7.3080    -1.5260     2.6890 hc         1 97N       0.033700
     40 H19          7.2830    -2.8380     3.8760 hc         1 97N       0.033700
     41 H20          9.4580    -0.7300     3.6150 hc         1 97N       0.059200
     42 H21          9.4330    -2.0420     4.8020 hc         1 97N       0.059200
     43 H22          9.4690    -2.3900     1.7810 hc         1 97N       0.040700
     44 H23          9.4450    -3.7010     2.9680 hc         1 97N       0.040700
     45 H24         11.5950    -2.9050     3.8930 hc         1 97N       0.047700
     46 H25         11.6200    -1.5930     2.7070 hc         1 97N       0.047700
     47 H26         11.6060    -4.5630     2.0580 hc         1 97N       0.040700
     48 H27         11.6320    -3.2510     0.8720 hc         1 97N       0.040700
     49 H28         13.7560    -3.7680     2.9840 hc         1 97N       0.060200
     50 H29         13.7820    -2.4560     1.7980 hc         1 97N       0.060200
     51 H30         13.7930    -4.1140    -0.0360 hc         1 97N       0.071700
     52 H31         13.7680    -5.4260     1.1500 hc         1 97N       0.071700
     53 H32         18.0770    -5.2420     1.4460 h1         1 97N       0.059700
     54 H33         18.1020    -3.9300     0.2600 h1         1 97N       0.059700
     55 H34         18.1520    -6.8860    -0.4430 h1         1 97N       0.053700
     56 H35         20.2180    -6.0930     0.7320 h1         1 97N       0.032700
     57 H36         20.4020    -4.8430    -0.5070 h1         1 97N       0.032700
     58 H8          17.8260    -6.1130    -2.3770 ho         1 97N       0.412000
     59 O3          20.6740    -6.7800    -1.1570 oh         1 97N      -0.605800
@<TRIPOS>BOND
     1     1     3 1
     2     3     5 1
     3     5     7 1
     4     7     8 1
     5     8     9 1
     6     9    10 1
     7    10    11 2
     8    11    12 1
     9    12    13 1
    10    13    14 1
    11    14    15 1
    12    15    16 1
    13    16    17 1
    14    17    18 1
    15    18    19 1
    16     2    19 2
    17    19     4 1
    18     4    20 1
    19     6    21 1
    20    20    21 1
    21    21    22 1
    22    22    59 1
    23     1    23 1
    24     1    24 1
    25     1    25 1
    26     3    26 1
    27     3    27 1
    28     5    28 1
    29     5    29 1
    30     6    58 1
    31     7    30 1
    32     7    31 1
    33    59    32 1
    34     8    33 1
    35     8    34 1
    36     9    35 1
    37     9    36 1
    38    10    37 1
    39    11    38 1
    40    12    39 1
    41    12    40 1
    42    13    41 1
    43    13    42 1
    44    14    43 1
    45    14    44 1
    46    15    45 1
    47    15    46 1
    48    16    47 1
    49    16    48 1
    50    17    49 1
    51    17    50 1
    52    18    51 1
    53    18    52 1
    54    20    53 1
    55    20    54 1
    56    21    55 1
    57    22    56 1
    58    22    57 1
@<TRIPOS>SUBSTRUCTURE
     1 97N         1 TEMP              0 ****  ****    0 ROOT
