@<TRIPOS>MOLECULE
molecule
   49    52     1     0     0
SMALL
bcc


@<TRIPOS>ATOM
      1 C2           0.0000     0.0000     0.0000 ca         1 97O       0.050100
      2 O24         -0.6760    -0.0090    -1.1810 os         1 97O      -0.336900
      3 C25         -1.0930     1.2550    -1.7000 c3         1 97O       0.139700
      4 C3           1.3900     0.0000     0.0000 ca         1 97O       0.136100
      5 O26          2.0730     0.0010    -1.1760 os         1 97O      -0.313900
      6 C27          3.5000     0.0010    -1.0980 c3         1 97O       0.124700
      7 C4           2.0780     0.0000     1.2050 ca         1 97O      -0.225000
      8 C5           1.3740     0.0070     2.3990 ca         1 97O       0.058000
      9 C10          2.0570    -0.0220     3.7110 cc         1 97O      -0.256300
     10 C11          3.3510     0.2400     4.0800 cd         1 97O       0.010700
     11 C14          4.4570     0.6430     3.1870 ca         1 97O      -0.080000
     12 C19          4.2770     1.6850     2.2760 ca         1 97O      -0.069500
     13 C18          5.3110     2.0590     1.4450 ca         1 97O      -0.198000
     14 C17          6.5310     1.4000     1.5130 ca         1 97O       0.152100
     15 O20          7.5480     1.7710     0.6930 os         1 97O      -0.325900
     16 C21          8.7770     1.0510     0.8160 c3         1 97O       0.127700
     17 C16          6.7150     0.3620     2.4180 ca         1 97O      -0.198000
     18 C15          5.6880    -0.0130     3.2570 ca         1 97O      -0.069500
     19 N12          3.4200     0.0540     5.4330 na         1 97O      -0.049600
     20 N13          2.1470    -0.3240     5.8890 nd         1 97O      -0.495800
     21 C9           1.3360    -0.3730     4.8830 cc         1 97O       0.354600
     22 C8          -0.1300    -0.7220     4.8200 c3         1 97O      -0.094700
     23 C7          -0.7950     0.0690     3.6970 c3         1 97O      -0.020100
     24 C6          -0.0260     0.0220     2.4070 ca         1 97O      -0.128300
     25 C1          -0.7040     0.0150     1.1980 ca         1 97O       0.126100
     26 O22         -2.0640     0.0170     1.1850 os         1 97O      -0.350900
     27 C23         -2.7140    -1.2530     1.0810 c3         1 97O       0.139700
     28 H1          -0.5870     1.4440    -2.6390 h1         1 97O       0.034700
     29 H2          -2.1640     1.2430    -1.8630 h1         1 97O       0.034700
     30 H3          -0.8440     2.0360    -0.9920 h1         1 97O       0.034700
     31 H4           3.8380     0.9390    -0.6720 h1         1 97O       0.042367
     32 H5           3.8270    -0.8190    -0.4700 h1         1 97O       0.042367
     33 H6           3.9160    -0.1150    -2.0910 h1         1 97O       0.042367
     34 H7           3.1610    -0.0000     1.2120 ha         1 97O       0.152000
     35 H8           3.3250     2.2000     2.2220 ha         1 97O       0.146000
     36 H9           5.1720     2.8680     0.7370 ha         1 97O       0.145500
     37 H10          8.6030     0.0020     0.6090 h1         1 97O       0.044033
     38 H11          9.4980     1.4440     0.1080 h1         1 97O       0.044033
     39 H12          9.1620     1.1620     1.8220 h1         1 97O       0.044033
     40 H13          7.6690    -0.1480     2.4700 ha         1 97O       0.145500
     41 H14          5.8320    -0.8220     3.9620 ha         1 97O       0.146000
     42 H15          4.2350     0.1760     6.0010 hn         1 97O       0.332700
     43 H17         -0.5940    -0.4490     5.7600 hc         1 97O       0.063700
     44 H18         -0.2270    -1.7790     4.6070 hc         1 97O       0.063700
     45 H20         -1.7750    -0.3600     3.5190 hc         1 97O       0.061200
     46 H21         -0.8650     1.1030     4.0100 hc         1 97O       0.061200
     47 H22         -3.4260    -1.3610     1.8900 h1         1 97O       0.037700
     48 H23         -3.2320    -1.3160     0.1320 h1         1 97O       0.037700
     49 H24         -1.9750    -2.0430     1.1430 h1         1 97O       0.037700
@<TRIPOS>BOND
     1     1     2 1
     2     1     4 ar
     3     1    25 ar
     4     2     3 1
     5     4     5 1
     6     4     7 ar
     7     5     6 1
     8     7     8 ar
     9     8     9 1
    10     8    24 ar
    11     9    10 2
    12     9    21 1
    13    10    11 1
    14    10    19 1
    15    11    12 ar
    16    11    18 ar
    17    12    13 ar
    18    13    14 ar
    19    14    15 1
    20    14    17 ar
    21    15    16 1
    22    17    18 ar
    23    19    20 1
    24    20    21 2
    25    22    23 1
    26    23    24 1
    27    24    25 ar
    28    25    26 1
    29    26    27 1
    30     3    28 1
    31     3    29 1
    32     3    30 1
    33     6    31 1
    34     6    32 1
    35     6    33 1
    36     7    34 1
    37    12    35 1
    38    13    36 1
    39    16    37 1
    40    16    38 1
    41    16    39 1
    42    17    40 1
    43    18    41 1
    44    19    42 1
    45    22    43 1
    46    22    44 1
    47    23    45 1
    48    23    46 1
    49    27    47 1
    50    27    48 1
    51    27    49 1
    52    22    21 1
@<TRIPOS>SUBSTRUCTURE
     1 97O         1 TEMP              0 ****  ****    0 ROOT
