@<TRIPOS>MOLECULE
molecule
   72    76     1     0     0
SMALL
bcc


@<TRIPOS>ATOM
      1 CAA          0.0000     0.0000     0.0000 c3         1 97V      -0.227300
      2 CAE          2.2540     0.0000     1.7060 ca         1 97V      -0.277500
      3 CAF          2.4260    -1.1980     2.3740 ca         1 97V      -0.050000
      4 CAG          2.7710    -1.2030     3.7140 ca         1 97V      -0.130000
      5 CAH          2.9440    -0.0090     4.3880 ca         1 97V      -0.076000
      6 CAI          2.7720     1.1950     3.7190 ca         1 97V       0.052600
      7 CAK          3.8590     2.4980     5.3870 c          1 97V       0.788100
      8 CAN          3.0000     4.7190     5.8980 c3         1 97V       0.147300
      9 CAO          1.8160     4.5350     6.8120 ca         1 97V      -0.084300
     10 CAP          0.7260     3.7970     6.3860 ca         1 97V      -0.119500
     11 CAQ         -0.3610     3.6230     7.2170 ca         1 97V      -0.076500
     12 CAR         -0.3600     4.1950     8.4910 ca         1 97V      -0.151600
     13 CAS         -1.5210     4.0130     9.3870 c          1 97V       0.692700
     14 CAV         -2.6070     4.3950    11.4580 cc         1 97V       0.530400
     15 NAJ          2.9470     2.4060     4.3980 ns         1 97V      -0.495100
     16 NAM          3.9560     3.6300     6.1110 n          1 97V      -0.407000
     17 NAU         -1.5170     4.5660    10.6160 ns         1 97V      -0.525400
     18 NAW         -3.7360     3.7030    11.1800 na         1 97V      -0.187400
     19 NAX         -4.5330     3.8180    12.3320 nc         1 97V      -0.213800
     20 NAY         -3.8670     4.5310    13.1750 nd         1 97V       0.006000
     21 NAZ         -2.7340     4.8700    12.6770 nd         1 97V      -0.452000
     22 OAC          2.3130    -1.2370    -0.4910 o          1 97V      -0.616300
     23 OAD          2.3130     1.2370    -0.4900 o          1 97V      -0.616300
     24 OAL          4.5960     1.5590     5.6240 o          1 97V      -0.620100
     25 OAT         -2.4790     3.3640     9.0160 o          1 97V      -0.608100
     26 SAB          1.8140     0.0000     0.0000 sy         1 97V       1.192300
     27 CBA          0.7430     4.9380     8.9150 ca         1 97V      -0.076500
     28 CBB          1.8260     5.0990     8.0750 ca         1 97V      -0.119500
     29 CBC          4.9690     3.7650     7.0670 ca         1 97V       0.052600
     30 CBD          5.9870     4.6900     6.8760 ca         1 97V      -0.118000
     31 CBE          6.9860     4.8210     7.8210 ca         1 97V      -0.119500
     32 CBF          6.9730     4.0320     8.9560 ca         1 97V      -0.070300
     33 CBG          8.0680     4.1730     9.9820 c3         1 97V      -0.026400
     34 CBH          9.4190     3.8720     9.3320 c3         1 97V      -0.071900
     35 CBI         10.5300     4.0150    10.3740 c3         1 97V      -0.080400
     36 CBJ         10.5350     5.4440    10.9220 c3         1 97V      -0.080400
     37 CBK          9.1830     5.7450    11.5720 c3         1 97V      -0.080400
     38 CBL          8.0720     5.6010    10.5310 c3         1 97V      -0.071900
     39 CBM          5.9600     3.1090     9.1490 ca         1 97V      -0.119500
     40 CBN          4.9560     2.9780     8.2120 ca         1 97V      -0.118000
     41 CBO          2.4210     1.1960     2.3750 ca         1 97V      -0.074000
     42 H1          -0.3610     0.9390     0.4010 h1         1 97V       0.097700
     43 H2          -0.3610    -0.1220    -1.0140 h1         1 97V       0.097700
     44 H3          -0.3610    -0.8170     0.6130 h1         1 97V       0.097700
     45 H4           2.2910    -2.1350     1.8480 ha         1 97V       0.152000
     46 H5           2.9050    -2.1430     4.2350 ha         1 97V       0.143000
     47 H6           3.2140    -0.0130     5.4370 ha         1 97V       0.168000
     48 H7           3.4780     5.6670     6.1140 h1         1 97V       0.062200
     49 H8           2.6650     4.7100     4.8680 h1         1 97V       0.062200
     50 H9           0.7260     3.3540     5.3970 ha         1 97V       0.143000
     51 H10         -1.2140     3.0460     6.8820 ha         1 97V       0.146500
     52 H11          2.4390     3.2180     4.1110 hn         1 97V       0.321500
     53 H12         -0.7270     5.0980    10.9220 hn         1 97V       0.361500
     54 H13         -3.9560     3.2140    10.3350 hn         1 97V       0.368700
     55 H14          0.7510     5.3830     9.9030 ha         1 97V       0.146500
     56 H15          2.6820     5.6760     8.4020 ha         1 97V       0.143000
     57 H16          5.9980     5.3090     5.9870 ha         1 97V       0.138500
     58 H17          7.7800     5.5430     7.6720 ha         1 97V       0.137500
     59 H18          7.8980     3.4770    10.7950 hc         1 97V       0.057700
     60 H19          9.5920     4.5720     8.5230 hc         1 97V       0.044450
     61 H20          9.4150     2.8600     8.9460 hc         1 97V       0.044450
     62 H21         10.3550     3.3190    11.1850 hc         1 97V       0.042450
     63 H22         11.4870     3.8040     9.9110 hc         1 97V       0.042450
     64 H23         10.7060     6.1400    10.1100 hc         1 97V       0.041700
     65 H24         11.3200     5.5430    11.6610 hc         1 97V       0.041700
     66 H25          9.0100     5.0460    12.3820 hc         1 97V       0.042450
     67 H26          9.1860     6.7570    11.9570 hc         1 97V       0.042450
     68 H27          8.2480     6.2970     9.7200 hc         1 97V       0.044450
     69 H28          7.1160     5.8120    10.9940 hc         1 97V       0.044450
     70 H29          5.9520     2.4940    10.0410 ha         1 97V       0.137500
     71 H30          4.1640     2.2550     8.3640 ha         1 97V       0.138500
     72 H31          2.2860     2.1350     1.8510 ha         1 97V       0.148000
@<TRIPOS>BOND
     1    36    37 1
     2    36    35 1
     3    37    38 1
     4    35    34 1
     5    38    33 1
     6    34    33 1
     7    33    32 1
     8    32    39 ar
     9    32    31 ar
    10    39    40 ar
    11    31    30 ar
    12    40    29 ar
    13    30    29 ar
    14    29    16 1
    15     5     4 ar
    16     5     6 ar
    17    15     6 1
    18    15     7 1
    19    16     7 1
    20    16     8 1
    21     4     3 ar
    22     6    41 ar
    23     7    24 2
    24     8     9 1
    25    10     9 ar
    26    10    11 ar
    27     3     2 ar
    28     9    28 ar
    29    11    12 ar
    30    41     2 ar
    31     2    26 1
    32    28    27 ar
    33    12    27 ar
    34    12    13 1
    35    17    13 1
    36    17    14 1
    37    21    14 2
    38    21    20 1
    39    13    25 2
    40    26     1 1
    41    26    22 2
    42    26    23 2
    43    14    18 1
    44    20    19 2
    45    18    19 1
    46     1    42 1
    47     1    43 1
    48     1    44 1
    49     3    45 1
    50     4    46 1
    51     5    47 1
    52     8    48 1
    53     8    49 1
    54    10    50 1
    55    11    51 1
    56    15    52 1
    57    17    53 1
    58    18    54 1
    59    27    55 1
    60    28    56 1
    61    30    57 1
    62    31    58 1
    63    33    59 1
    64    34    60 1
    65    34    61 1
    66    35    62 1
    67    35    63 1
    68    36    64 1
    69    36    65 1
    70    37    66 1
    71    37    67 1
    72    38    68 1
    73    38    69 1
    74    39    70 1
    75    40    71 1
    76    41    72 1
@<TRIPOS>SUBSTRUCTURE
     1 97V         1 TEMP              0 ****  ****    0 ROOT
