@<TRIPOS>MOLECULE
97Y
   64    67     1     0     0
SMALL
bcc


@<TRIPOS>ATOM
      1 C13          1.5070     0.0000     0.0000 c3         1 97Y       0.197800
      2 C15          2.0340     2.5070     0.1630 cy         1 97Y      -0.050900
      3 C17          0.0000     0.0000     0.0000 ca         1 97Y      -0.111300
      4 C20          3.0640    -0.8250     1.7460 ca         1 97Y      -0.031700
      5 C21          8.9390    -5.6310     1.9590 c3         1 97Y       0.578600
      6 C22          6.9740    -4.0270     1.7930 cc         1 97Y      -0.341600
      7 C24          4.5190    -1.7520     3.3930 ca         1 97Y      -0.154300
      8 C26         -0.6890    -0.7720    -0.9190 ca         1 97Y      -0.110500
      9 C28          3.4530    -0.9280     3.0800 ca         1 97Y      -0.147000
     10 F01          8.3030    -6.6390     1.2250 f          1 97Y      -0.210300
     11 F02          9.6560    -6.2050     3.0140 f          1 97Y      -0.210300
     12 F03          9.8170    -4.9310     1.1240 f          1 97Y      -0.210300
     13 O04         -4.8550    -0.6800    -0.8040 o          1 97Y      -0.654100
     14 O05         -9.0750     2.3860     2.9210 o          1 97Y      -0.893800
     15 O06         -9.0070     0.9590     1.2350 o          1 97Y      -0.893800
     16 N07          6.2420    -3.2820     2.6820 na         1 97Y       0.342300
     17 N08          1.9950     0.0000     1.3820 nu         1 97Y      -0.390600
     18 N09          7.7550    -4.3470     3.8000 nd         1 97Y      -0.556000
     19 N10          4.7630    -2.3270     1.1190 nb         1 97Y      -0.517000
     20 N11         -4.9220     0.7320     0.9100 ns         1 97Y      -0.180900
     21 C12          2.0160     1.2490    -0.7210 cy         1 97Y      -0.085700
     22 C14          3.3770     2.8580    -0.4990 cy         1 97Y      -0.086000
     23 C16          3.5510     1.3530    -0.7630 cy         1 97Y      -0.050900
     24 C18          7.9050    -4.6830     2.5100 cd         1 97Y       0.158600
     25 C19          5.1620    -2.4450     2.3750 ca         1 97Y       0.199800
     26 C23          6.7620    -3.5090     3.9160 cc         1 97Y       0.196400
     27 C25         -0.6890     0.7670     0.9230 ca         1 97Y      -0.110500
     28 C27          3.7540    -1.5480     0.7830 ca         1 97Y       0.315200
     29 C29          3.2330     3.6930    -1.7730 c3         1 97Y       0.023400
     30 C30          4.4090     3.4330     0.4740 c3         1 97Y       0.023400
     31 C31         -2.7690    -0.0100     0.0070 ca         1 97Y      -0.125600
     32 C32         -2.0680     0.7670     0.9330 ca         1 97Y      -0.058500
     33 C33         -2.0690    -0.7760    -0.9240 ca         1 97Y      -0.058500
     34 C34         -4.2480    -0.0110     0.0080 c          1 97Y       0.569700
     35 C35         -6.3870     0.7310     0.9100 c3         1 97Y       0.050000
     36 C36         -6.8970     1.6480     2.0240 c3         1 97Y      -0.150400
     37 C37         -8.4040     1.6470     2.0240 c          1 97Y       0.983600
     38 H1           1.8680    -0.8850    -0.5110 h1         1 97Y       0.051700
     39 H2           2.1280     2.2820     1.2180 hc         1 97Y       0.033950
     40 H3           1.2450     3.2080    -0.0810 hc         1 97Y       0.033950
     41 H4           6.9460    -3.9400     0.7140 h4         1 97Y       0.173000
     42 H5           4.8490    -1.8560     4.4200 ha         1 97Y       0.120000
     43 H6          -0.1440    -1.3670    -1.6410 ha         1 97Y       0.102500
     44 H7           2.9340    -0.3760     3.8540 ha         1 97Y       0.123000
     45 H9           1.5380     0.5610     2.0730 hn         1 97Y       0.308800
     46 H10         -4.4210     1.2740     1.5860 hn         1 97Y       0.166500
     47 H11          1.5590     1.4230    -1.6880 hc         1 97Y       0.063700
     48 H12          3.9640     1.1390    -1.7410 hc         1 97Y       0.033950
     49 H13          4.0340     0.8320     0.0550 hc         1 97Y       0.033950
     50 H14          6.4100    -3.0690     4.8410 h5         1 97Y       0.030100
     51 H15         -0.1440     1.3690     1.6400 ha         1 97Y       0.102500
     52 H16          3.4570    -1.4760    -0.2570 h4         1 97Y       0.007100
     53 H17          4.2060     3.8250    -2.2300 hc         1 97Y       0.004700
     54 H18          2.8160     4.6620    -1.5240 hc         1 97Y       0.004700
     55 H19          2.5740     3.1840    -2.4660 hc         1 97Y       0.004700
     56 H20          4.3500     2.9030     1.4170 hc         1 97Y       0.004700
     57 H21          5.4020     3.3180     0.0570 hc         1 97Y       0.004700
     58 H22          4.2050     4.4840     0.6380 hc         1 97Y       0.004700
     59 H23         -2.6070     1.3660     1.6570 ha         1 97Y       0.122500
     60 H24         -2.6070    -1.3810    -1.6440 ha         1 97Y       0.122500
     61 H25         -6.7490     1.0880    -0.0460 h1         1 97Y       0.040200
     62 H26         -6.7470    -0.2770     1.0790 h1         1 97Y       0.040200
     63 H27         -6.5350     1.2900     2.9800 hc         1 97Y       0.005700
     64 H28         -6.5360     2.6550     1.8560 hc         1 97Y       0.005700
@<TRIPOS>BOND
     1     1     3 1   
     2     1    17 1   
     3     1    21 1   
     4     1    38 1   
     5     2    21 1   
     6     2    22 1   
     7     2    39 1   
     8     2    40 1   
     9     3     8 ar  
    10     3    27 ar  
    11     4     9 ar  
    12     4    17 1   
    13     4    28 ar  
    14     5    10 1   
    15     5    11 1   
    16     5    12 1   
    17     5    24 1   
    18     6    16 1   
    19     6    24 2   
    20     6    41 1   
    21     7     9 ar  
    22     7    25 ar  
    23     7    42 1   
    24     8    33 ar  
    25     8    43 1   
    26     9    44 1   
    27    13    34 2   
    28    14    37 1   
    29    15    37 1   
    30    16    25 1   
    31    16    26 1   
    32    17    45 1   
    33    18    24 1   
    34    18    26 2   
    35    19    25 ar  
    36    19    28 ar  
    37    20    34 1   
    38    20    35 1   
    39    20    46 1   
    40    21    23 1   
    41    21    47 1   
    42    22    23 1   
    43    22    29 1   
    44    22    30 1   
    45    23    48 1   
    46    23    49 1   
    47    26    50 1   
    48    27    32 ar  
    49    27    51 1   
    50    28    52 1   
    51    29    53 1   
    52    29    54 1   
    53    29    55 1   
    54    30    56 1   
    55    30    57 1   
    56    30    58 1   
    57    31    32 ar  
    58    31    33 ar  
    59    31    34 1   
    60    32    59 1   
    61    33    60 1   
    62    35    36 1   
    63    35    61 1   
    64    35    62 1   
    65    36    37 1   
    66    36    63 1   
    67    36    64 1   
@<TRIPOS>SUBSTRUCTURE
     1 97Y         1 TEMP              0 ****  ****    0 ROOT
