@<TRIPOS>MOLECULE
molecule
   64    67     1     0     0
SMALL
bcc


@<TRIPOS>ATOM
      1 C13          1.5070     0.0000     0.0000 c3         1 97Y       0.293800
      2 C15          2.0340     2.5070     0.1630 cy         1 97Y      -0.088400
      3 C17          0.0000     0.0000     0.0000 ca         1 97Y      -0.097300
      4 C20          3.0640    -0.8250     1.7460 ca         1 97Y       0.087300
      5 C21          8.9390    -5.6310     1.9590 c3         1 97Y       0.616600
      6 C22          6.9740    -4.0270     1.7930 cc         1 97Y      -0.169600
      7 C24          4.5190    -1.7520     3.3930 ca         1 97Y      -0.203300
      8 C26         -0.6890    -0.7720    -0.9190 ca         1 97Y      -0.134500
      9 C28          3.4530    -0.9280     3.0800 ca         1 97Y      -0.161000
     10 F01          8.3030    -6.6390     1.2250 f          1 97Y      -0.220967
     11 F02          9.6560    -6.2050     3.0140 f          1 97Y      -0.220967
     12 F03          9.8170    -4.9310     1.1240 f          1 97Y      -0.220967
     13 O04         -4.8550    -0.6800    -0.8040 o          1 97Y      -0.612100
     14 O05         -9.0750     2.3860     2.9210 o          1 97Y      -0.844800
     15 O06         -9.0070     0.9590     1.2350 o          1 97Y      -0.844800
     16 N07          6.2420    -3.2820     2.6820 na         1 97Y      -0.195700
     17 N08          1.9950     0.0000     1.3820 nu         1 97Y      -0.801600
     18 N09          7.7550    -4.3470     3.8000 nc         1 97Y      -0.655000
     19 N10          4.7630    -2.3270     1.1190 nb         1 97Y      -0.666000
     20 N11         -4.9220     0.7320     0.9100 ns         1 97Y      -0.571900
     21 C12          2.0160     1.2490    -0.7210 cy         1 97Y      -0.109700
     22 C14          3.3770     2.8580    -0.4990 cy         1 97Y      -0.088000
     23 C16          3.5510     1.3530    -0.7630 cy         1 97Y      -0.088400
     24 C18          7.9050    -4.6830     2.5100 cc         1 97Y       0.204600
     25 C19          5.1620    -2.4450     2.3750 ca         1 97Y       0.440800
     26 C23          6.7620    -3.5090     3.9160 cd         1 97Y       0.406400
     27 C25         -0.6890     0.7670     0.9230 ca         1 97Y      -0.134500
     28 C27          3.7540    -1.5480     0.7830 ca         1 97Y       0.365200
     29 C29          3.2330     3.6930    -1.7730 c3         1 97Y      -0.071600
     30 C30          4.4090     3.4330     0.4740 c3         1 97Y      -0.071600
     31 C31         -2.7690    -0.0100     0.0070 ca         1 97Y      -0.123600
     32 C32         -2.0680     0.7670     0.9330 ca         1 97Y      -0.086500
     33 C33         -2.0690    -0.7760    -0.9240 ca         1 97Y      -0.086500
     34 C34         -4.2480    -0.0110     0.0080 c          1 97Y       0.653700
     35 C35         -6.3870     0.7310     0.9100 c3         1 97Y       0.116000
     36 C36         -6.8970     1.6480     2.0240 c3         1 97Y      -0.204400
     37 C37         -8.4040     1.6470     2.0240 c          1 97Y       0.895600
     38 H1           1.8680    -0.8850    -0.5110 h1         1 97Y       0.069700
     39 H2           2.1280     2.2820     1.2180 hc         1 97Y       0.057200
     40 H3           1.2450     3.2080    -0.0810 hc         1 97Y       0.057200
     41 H4           6.9460    -3.9400     0.7140 h4         1 97Y       0.201000
     42 H5           4.8490    -1.8560     4.4200 ha         1 97Y       0.142000
     43 H6          -0.1440    -1.3670    -1.6410 ha         1 97Y       0.124000
     44 H7           2.9340    -0.3760     3.8540 ha         1 97Y       0.149000
     45 H9           1.5380     0.5610     2.0730 hn         1 97Y       0.449800
     46 H10         -4.4210     1.2740     1.5860 hn         1 97Y       0.301500
     47 H11          1.5590     1.4230    -1.6880 hc         1 97Y       0.083700
     48 H12          3.9640     1.1390    -1.7410 hc         1 97Y       0.057200
     49 H13          4.0340     0.8320     0.0550 hc         1 97Y       0.057200
     50 H14          6.4100    -3.0690     4.8410 h5         1 97Y       0.073100
     51 H15         -0.1440     1.3690     1.6400 ha         1 97Y       0.124000
     52 H16          3.4570    -1.4760    -0.2570 h4         1 97Y       0.040100
     53 H17          4.2060     3.8250    -2.2300 hc         1 97Y       0.035700
     54 H18          2.8160     4.6620    -1.5240 hc         1 97Y       0.035700
     55 H19          2.5740     3.1840    -2.4660 hc         1 97Y       0.035700
     56 H20          4.3500     2.9030     1.4170 hc         1 97Y       0.035700
     57 H21          5.4020     3.3180     0.0570 hc         1 97Y       0.035700
     58 H22          4.2050     4.4840     0.6380 hc         1 97Y       0.035700
     59 H23         -2.6070     1.3660     1.6570 ha         1 97Y       0.150000
     60 H24         -2.6070    -1.3810    -1.6440 ha         1 97Y       0.150000
     61 H25         -6.7490     1.0880    -0.0460 h1         1 97Y       0.065200
     62 H26         -6.7470    -0.2770     1.0790 h1         1 97Y       0.065200
     63 H27         -6.5350     1.2900     2.9800 hc         1 97Y       0.030700
     64 H28         -6.5360     2.6550     1.8560 hc         1 97Y       0.030700
@<TRIPOS>BOND
     1    10     5 1
     2    18    26 2
     3    18    24 1
     4    15    37 1
     5     5    24 1
     6     5    11 1
     7     5    12 1
     8    26    16 1
     9    36    37 1
    10    36    35 1
    11    24     6 2
    12    37    14 1
    13    13    34 2
    14    35    20 1
    15    16     6 1
    16    16    25 1
    17    34    20 1
    18    34    31 1
    19     7    25 ar
    20     7     9 ar
    21    25    19 ar
    22    32    31 ar
    23    32    27 ar
    24    31    33 ar
    25     9     4 ar
    26    27     3 ar
    27    19    28 ar
    28    33     8 ar
    29     4    28 ar
    30     4    17 1
    31     3     8 ar
    32     3     1 1
    33     1    17 1
    34     1    21 1
    35    21    23 1
    36    21     2 1
    37    23    22 1
    38     2    22 1
    39    22    30 1
    40    22    29 1
    41     1    38 1
    42     2    39 1
    43     2    40 1
    44     6    41 1
    45     7    42 1
    46     8    43 1
    47     9    44 1
    48    17    45 1
    49    20    46 1
    50    21    47 1
    51    23    48 1
    52    23    49 1
    53    26    50 1
    54    27    51 1
    55    28    52 1
    56    29    53 1
    57    29    54 1
    58    29    55 1
    59    30    56 1
    60    30    57 1
    61    30    58 1
    62    32    59 1
    63    33    60 1
    64    35    61 1
    65    35    62 1
    66    36    63 1
    67    36    64 1
@<TRIPOS>SUBSTRUCTURE
     1 97Y         1 TEMP              0 ****  ****    0 ROOT
