@<TRIPOS>MOLECULE
molecule
   40    43     1     0     0
SMALL
bcc


@<TRIPOS>ATOM
      1 CAS          0.0000     0.0000     0.0000 c3         1 97Z       0.124300
      2 CAT          1.5310     0.0000     0.0000 c3         1 97Z       0.136900
      3 OAU          2.0030     0.0000     1.3490 os         1 97Z      -0.421600
      4 CAV          1.5510    -1.1180     2.1180 c3         1 97Z       0.136900
      5 CAW          0.0200    -1.1280     2.1400 c3         1 97Z       0.124300
      6 NAR         -0.4840    -1.1610     0.7590 nh         1 97Z      -0.594000
      7 CAO         -1.8760    -1.2260     0.7390 ca         1 97Z       0.130600
      8 CAP         -2.5330    -2.2580     1.4020 ca         1 97Z      -0.175500
      9 CAQ         -3.9080    -2.3250     1.3840 ca         1 97Z      -0.063000
     10 CAN         -2.6050    -0.2560     0.0590 ca         1 97Z      -0.175500
     11 CAM         -3.9800    -0.3180     0.0360 ca         1 97Z      -0.063000
     12 CAL         -4.6430    -1.3560     0.6960 ca         1 97Z      -0.180900
     13 CAD         -6.1170    -1.4240     0.6740 cc         1 97Z       0.563500
     14 NAE         -6.7070    -2.4070     1.3080 nd         1 97Z      -0.654100
     15 CAF         -8.0480    -2.5310     1.3300 ca         1 97Z       0.203400
     16 CAK         -8.6730    -3.5820     2.0080 ca         1 97Z      -0.125000
     17 CAJ        -10.0470    -3.6740     2.0070 ca         1 97Z      -0.091000
     18 CAI        -10.8210    -2.7350     1.3380 ca         1 97Z      -0.157000
     19 CAH        -10.2290    -1.6900     0.6620 ca         1 97Z      -0.050000
     20 CAG         -8.8410    -1.5780     0.6510 ca         1 97Z      -0.210600
     21 CAB         -8.1580    -0.4830    -0.0550 c          1 97Z       0.709100
     22 OAA         -8.7850     0.3690    -0.6570 o          1 97Z      -0.625500
     23 NAC         -6.8060    -0.4550    -0.0040 ns         1 97Z      -0.472400
     24 H1          -0.3600    -0.0600    -1.0200 h1         1 97Z       0.053950
     25 H2          -0.3610     0.9100     0.4640 h1         1 97Z       0.053950
     26 H3           1.8920     0.8860    -0.5080 h1         1 97Z       0.057700
     27 H4           1.8920    -0.8860    -0.5080 h1         1 97Z       0.057700
     28 H5           1.9110    -2.0350     1.6680 h1         1 97Z       0.057700
     29 H6           1.9260    -1.0340     3.1310 h1         1 97Z       0.057700
     30 H7          -0.3390    -0.2340     2.6340 h1         1 97Z       0.053950
     31 H8          -0.3270    -2.0060     2.6720 h1         1 97Z       0.053950
     32 H9          -1.9620    -3.0080     1.9350 ha         1 97Z       0.144500
     33 H10         -4.4180    -3.1290     1.8990 ha         1 97Z       0.145000
     34 H11         -2.0910     0.5480    -0.4530 ha         1 97Z       0.144500
     35 H12         -4.5480     0.4360    -0.4960 ha         1 97Z       0.145000
     36 H13         -8.0790    -4.3200     2.5340 ha         1 97Z       0.148000
     37 H14        -10.5290    -4.4880     2.5330 ha         1 97Z       0.134000
     38 H15        -11.9000    -2.8240     1.3490 ha         1 97Z       0.135000
     39 H16        -10.8400    -0.9610     0.1430 ha         1 97Z       0.154000
     40 H17         -6.3060     0.2790    -0.4660 hn         1 97Z       0.338500
@<TRIPOS>BOND
     1     3     4 1
     2     3     2 1
     3     4     5 1
     4     2     1 1
     5     5     6 1
     6     1     6 1
     7     6     7 1
     8     7     8 ar
     9     7    10 ar
    10     8     9 ar
    11    10    11 ar
    12     9    12 ar
    13    11    12 ar
    14    12    13 1
    15    13    14 2
    16    13    23 1
    17    14    15 1
    18    23    21 1
    19    15    16 ar
    20    15    20 ar
    21    16    17 ar
    22    21    20 1
    23    21    22 2
    24    20    19 ar
    25    17    18 ar
    26    19    18 ar
    27     1    24 1
    28     1    25 1
    29     2    26 1
    30     2    27 1
    31     4    28 1
    32     4    29 1
    33     5    30 1
    34     5    31 1
    35     8    32 1
    36     9    33 1
    37    10    34 1
    38    11    35 1
    39    16    36 1
    40    17    37 1
    41    18    38 1
    42    19    39 1
    43    23    40 1
@<TRIPOS>SUBSTRUCTURE
     1 97Z         1 TEMP              0 ****  ****    0 ROOT
