@<TRIPOS>MOLECULE
98
   25    26     1     0     0
SMALL
bcc


@<TRIPOS>ATOM
      1 C1           0.0000     0.0000     0.0000 c3         1 98       -0.036100
      2 C2           1.5300     0.0000     0.0000 c3         1 98        0.140500
      3 C3           2.0390     0.0000     1.4420 c3         1 98       -0.106400
      4 C4           3.4910     0.3940     1.4790 c          1 98        0.615500
      5 O            4.3410    -0.4530     1.6600 o          1 98       -0.675500
      6 N1           3.8550     1.6840     1.3100 ns         1 98       -0.031100
      7 C5           2.8960     2.6560     1.0040 ca         1 98       -0.103400
      8 C10          2.8370     3.8450     1.7120 ca         1 98       -0.101000
      9 C9           1.8960     4.8020     1.3760 ca         1 98       -0.101000
     10 C8           1.0140     4.5760     0.3350 ca         1 98       -0.087000
     11 C7           1.0610     3.3880    -0.3720 ca         1 98       -0.131000
     12 C6           1.9920     2.4200    -0.0340 ca         1 98        0.006600
     13 N2           2.0160     1.1910    -0.7000 nu         1 98       -0.431600
     14 H1          -0.3610    -0.9270     0.4280 hc         1 98        0.012033
     15 H2          -0.3610     0.8340     0.5890 hc         1 98        0.012033
     16 H3          -0.3610     0.0930    -1.0170 hc         1 98        0.012033
     17 H4           1.8940    -0.8860    -0.5070 h1         1 98        0.048700
     18 H5           1.9270    -0.9930     1.8600 hc         1 98        0.042200
     19 H6           1.4620     0.7080     2.0250 hc         1 98        0.042200
     20 H7           4.8160     1.9460     1.4050 hn         1 98        0.180500
     21 H8           3.5260     4.0250     2.5280 ha         1 98        0.111000
     22 H9           1.8550     5.7340     1.9260 ha         1 98        0.106000
     23 H10          0.2800     5.3300     0.0770 ha         1 98        0.104000
     24 H11          0.3690     3.2140    -1.1870 ha         1 98        0.110000
     25 H12          1.5450     1.2780    -1.5780 hn         1 98        0.261800
@<TRIPOS>BOND
     1     1     2 1   
     2     1    14 1   
     3     1    15 1   
     4     1    16 1   
     5     2     3 1   
     6     2    13 1   
     7     2    17 1   
     8     3     4 1   
     9     3    18 1   
    10     3    19 1   
    11     4     5 2   
    12     4     6 1   
    13     6     7 1   
    14     6    20 1   
    15     7     8 ar  
    16     7    12 ar  
    17     8     9 ar  
    18     8    21 1   
    19     9    10 ar  
    20     9    22 1   
    21    10    11 ar  
    22    10    23 1   
    23    11    12 ar  
    24    11    24 1   
    25    12    13 1   
    26    13    25 1   
@<TRIPOS>SUBSTRUCTURE
     1 98          1 TEMP              0 ****  ****    0 ROOT
