@<TRIPOS>MOLECULE
molecule
   65    69     1     0     0
SMALL
bcc


@<TRIPOS>ATOM
      1 C1           0.0000     0.0000     0.0000 c3         1 980      -0.033900
      2 C2           1.5070     0.0000     0.0000 cc         1 980      -0.183000
      3 C3           2.2100     0.0000     1.1220 cd         1 980      -0.024600
      4 S4           3.9310    -0.0000     0.7760 ss         1 980      -0.079500
      5 C5           3.6310    -0.0000    -0.9550 ca         1 980      -0.293700
      6 C6           2.2530    -0.0060    -1.1890 ca         1 980       0.516100
      7 N7           1.8290    -0.0130    -2.4730 nb         1 980      -0.740000
      8 C8           2.6870    -0.0180    -3.4720 cp         1 980       0.790500
      9 N9           4.0030    -0.0170    -3.2800 nb         1 980      -0.790000
     10 C10          4.5080    -0.0000    -2.0540 ca         1 980       0.700200
     11 N11          5.8800    -0.0010    -1.8590 nh         1 980      -0.696300
     12 C12          6.2930    -1.1430    -1.0320 c3         1 980       0.130800
     13 C13          7.8040    -1.0710    -0.7920 c3         1 980       0.135400
     14 O14          8.4810    -1.0410    -2.0510 os         1 980      -0.420600
     15 C15          8.1020     0.0590    -2.8810 c3         1 980       0.135400
     16 C16          6.5940    -0.0010    -3.1430 c3         1 980       0.130800
     17 C17          2.1680    -0.0250    -4.8600 cp         1 980      -0.468100
     18 C18          0.7920    -0.0250    -5.1110 ca         1 980       0.543200
     19 N19          0.3690    -0.0310    -6.3620 nb         1 980      -0.808500
     20 C20          1.2280    -0.0370    -7.3720 ca         1 980       0.953900
     21 N21          2.5390    -0.0360    -7.1740 nb         1 980      -0.808500
     22 C22          3.0410    -0.0240    -5.9520 ca         1 980       0.543200
     23 N23          0.7430    -0.0430    -8.6660 nv         1 980      -0.981500
     24 C24          1.6150    -0.0000     2.5060 c3         1 980       0.234000
     25 N25          1.4200    -1.3850     2.9560 n3         1 980      -0.725600
     26 C26          0.6300    -1.4320     4.1930 c3         1 980       0.140300
     27 C27          0.2970    -2.8890     4.5280 c3         1 980       0.109000
     28 N28          1.5500    -3.6590     4.5620 n          1 980      -0.499800
     29 C29          2.4630    -3.5540     3.4130 c3         1 980       0.109000
     30 C30          2.7100    -2.0710     3.1220 c3         1 980       0.140300
     31 C31          1.8550    -4.4380     5.6180 c          1 980       0.645100
     32 O32          1.0910    -4.5120     6.5570 o          1 980      -0.580100
     33 C33          3.1440    -5.2180     5.6330 c3         1 980       0.077100
     34 C35          3.1190    -6.2660     4.5190 c3         1 980      -0.106100
     35 O36          3.2930    -5.8690     6.8950 oh         1 980      -0.569800
     36 H1          -0.3610     0.1860    -1.0040 hc         1 980       0.052700
     37 H1A         -0.3610     0.7770     0.6630 hc         1 980       0.052700
     38 H1B         -0.3610    -0.9630     0.3410 hc         1 980       0.052700
     39 H12          6.0540    -2.0660    -1.5460 h1         1 980       0.061950
     40 H12A         5.7750    -1.1070    -0.0820 h1         1 980       0.061950
     41 H13          8.1220    -1.9430    -0.2320 h1         1 980       0.058200
     42 H13A         8.0380    -0.1720    -0.2350 h1         1 980       0.058200
     43 H15          8.6340     0.0000    -3.8230 h1         1 980       0.058200
     44 H15A         8.3450     0.9890    -2.3810 h1         1 980       0.058200
     45 H16          6.3580    -0.9070    -3.6870 h1         1 980       0.061950
     46 H16A         6.2940     0.8640    -3.7220 h1         1 980       0.061950
     47 H18          0.0840    -0.0210    -4.2920 h4         1 980       0.049600
     48 H22          4.1130    -0.0240    -5.7990 h4         1 980       0.049600
     49 HN23         1.3800    -0.0370    -9.4390 hn         1 980       0.452300
     50 HN2A        -0.2440    -0.0530    -8.8310 hn         1 980       0.452300
     51 H24          0.6600     0.5120     2.4890 h1         1 980       0.051700
     52 H24A         2.2860     0.5100     3.1870 h1         1 980       0.051700
     53 H26         -0.2890    -0.8750     4.0540 h1         1 980       0.044950
     54 H26A         1.2030    -0.9980     5.0030 h1         1 980       0.044950
     55 H27         -0.1860    -2.9380     5.4960 h1         1 980       0.063950
     56 H27A        -0.3590    -3.2960     3.7670 h1         1 980       0.063950
     57 H29          3.4020    -4.0390     3.6500 h1         1 980       0.063950
     58 H29A         2.0120    -4.0240     2.5480 h1         1 980       0.063950
     59 H30          3.2510    -1.6260     3.9490 h1         1 980       0.044950
     60 H30A         3.2890    -1.9740     2.2110 h1         1 980       0.044950
     61 H33          3.9770    -4.5430     5.4750 h1         1 980       0.038700
     62 H35          2.1610    -6.2330     4.0130 hc         1 980       0.051700
     63 H35A         3.9100    -6.0580     3.8080 hc         1 980       0.051700
     64 H35B         3.2670    -7.2510     4.9460 hc         1 980       0.051700
     65 HO36         4.0610    -5.5400     7.3310 ho         1 980       0.403000
@<TRIPOS>BOND
     1     1     2 1
     2     1    36 1
     3     1    37 1
     4     1    38 1
     5     2     3 2
     6     2     6 1
     7    24     3 1
     8     3     4 1
     9     5     4 1
    10     6     5 ar
    11     5    10 ar
    12     7     6 ar
    13     7     8 ar
    14    17     8 1
    15     8     9 ar
    16     9    10 ar
    17    10    11 1
    18    12    11 1
    19    11    16 1
    20    12    13 1
    21    12    39 1
    22    12    40 1
    23    13    14 1
    24    13    41 1
    25    13    42 1
    26    14    15 1
    27    16    15 1
    28    15    43 1
    29    15    44 1
    30    16    45 1
    31    16    46 1
    32    22    17 ar
    33    17    18 ar
    34    19    18 ar
    35    18    47 1
    36    20    19 ar
    37    21    20 ar
    38    23    20 1
    39    21    22 ar
    40    22    48 1
    41    23    49 1
    42    23    50 1
    43    25    24 1
    44    24    51 1
    45    24    52 1
    46    30    25 1
    47    26    25 1
    48    27    26 1
    49    26    53 1
    50    26    54 1
    51    28    27 1
    52    27    55 1
    53    27    56 1
    54    31    28 1
    55    28    29 1
    56    29    30 1
    57    29    57 1
    58    29    58 1
    59    30    59 1
    60    30    60 1
    61    32    31 2
    62    33    31 1
    63    35    33 1
    64    34    33 1
    65    33    61 1
    66    34    62 1
    67    34    63 1
    68    34    64 1
    69    35    65 1
@<TRIPOS>SUBSTRUCTURE
     1 980         1 TEMP              0 ****  ****    0 ROOT
