@<TRIPOS>MOLECULE
981
   58    62     1     0     0
SMALL
bcc


@<TRIPOS>ATOM
      1 CAB          0.0000     0.0000     0.0000 ca         1 981      -0.024600
      2 CAC          1.3840     0.0000     0.0000 ca         1 981      -0.099000
      3 CAD          2.0770     0.0000     1.1950 ca         1 981      -0.014600
      4 CAG          7.4550    -6.4240    11.2300 c3         1 981       0.148300
      5 CAH          8.2790    -7.6580    11.6060 c3         1 981       0.145800
      6 CAJ         -0.6980     0.0010     1.1950 ca         1 981      -0.098000
      7 CAK         -0.0160     0.0000     2.3950 ca         1 981      -0.057000
      8 CAL          1.3780    -0.0010     2.4030 ca         1 981      -0.013800
      9 CAM          2.1150    -0.0010     3.6880 cc         1 981      -0.164400
     10 CAN          2.7280    -1.1410     4.1320 cd         1 981       0.029800
     11 CAO          3.4240    -1.1110     5.3620 ca         1 981      -0.428400
     12 CAP          4.0680    -2.2530     5.8620 ca         1 981       0.551200
     13 CAR          6.7860    -2.9150     8.3900 ca         1 981      -0.141000
     14 CAS          7.5110    -4.0150     8.8080 ca         1 981       0.153900
     15 CAT          7.5960    -4.3170    10.1630 ca         1 981      -0.034400
     16 CAV          9.4190    -5.0330    11.4880 c3         1 981       0.148300
     17 CAW         10.2430    -6.2680    11.8650 c3         1 981       0.145800
     18 CAX          2.2000     1.2210     4.4920 c          1 981       0.619700
     19 CAZ          3.4820     0.0800     6.1160 ca         1 981       0.457200
     20 CBB          4.7360    -1.0280     7.6980 ca         1 981       0.739900
     21 CBD          6.1490    -2.1080     9.3240 ca         1 981       0.016600
     22 CBE          6.2380    -2.4080    10.6770 ca         1 981      -0.136000
     23 CBF          6.9530    -3.5140    11.0940 ca         1 981      -0.090000
     24 CBI          1.7630     2.5080     7.4220 c3         1 981      -0.006100
     25 NAI          9.3690    -7.2600    12.5070 n7         1 981      -0.587200
     26 NAQ          4.7020    -2.1670     7.0160 nb         1 981      -0.709000
     27 NAU          8.3290    -5.4320    10.5880 nh         1 981      -0.393000
     28 NAY          2.8690     1.2210     5.6600 n          1 981       0.007700
     29 NBA          4.1440     0.0750     7.2680 nb         1 981      -0.738000
     30 NBC          5.4140    -0.9930     8.9010 nu         1 981      -0.270300
     31 OBG          1.6610     2.2410     4.1010 o          1 981      -0.661500
     32 ClAA        -0.8640     0.0070    -1.5060 cl         1 981      -0.022400
     33 ClAE         3.8130    -0.0020     1.1940 cl         1 981      -0.018400
     34 H1           1.9250    -0.0000    -0.9390 ha         1 981       0.126000
     35 H2           7.0200    -5.9950    12.1250 h1         1 981       0.017950
     36 H3           7.6420    -8.3770    12.1070 h1         1 981       0.012700
     37 H4          -1.7810     0.0010     1.1890 ha         1 981       0.117000
     38 H5          -0.5630     0.0000     3.3300 ha         1 981       0.114000
     39 H6           2.5270    -2.0880     3.6470 ha         1 981       0.117000
     40 H7           4.0460    -3.1860     5.3120 h4         1 981      -0.009900
     41 H8           6.7180    -2.6800     7.3340 ha         1 981       0.150000
     42 H9          10.0560    -4.3150    10.9870 h1         1 981       0.017950
     43 H10          9.0030    -4.5910    12.3850 h1         1 981       0.017950
     44 H11         11.0290    -5.9800    12.5530 h1         1 981       0.012700
     45 H12         10.6780    -6.6970    10.9700 h1         1 981       0.012700
     46 H13          5.7390    -1.7800    11.4040 ha         1 981       0.111000
     47 H14          7.0200    -3.7480    12.1500 ha         1 981       0.119000
     48 H15          3.8730     2.4690     7.0110 h1         1 981       0.049700
     49 H16          2.9090     3.3060     5.7870 h1         1 981       0.049700
     50 H17          1.3210     1.5230     7.5090 hc         1 981       0.011033
     51 H18          2.1430     2.8200     8.3870 hc         1 981       0.011033
     52 H19          1.0130     3.2120     7.0840 hc         1 981       0.011033
     53 H20          9.9070    -8.0660    12.7570 hn         1 981       0.254800
     54 H21          5.4060    -0.1600     9.4560 hn         1 981       0.296800
     55 H22          6.6700    -6.7110    10.5420 h1         1 981       0.017950
     56 H23          8.6960    -8.1000    10.7090 h1         1 981       0.012700
     57 CBH          2.9460     2.4520     6.4520 c3         1 981       0.012000
     58 FAF          8.1350    -4.7960     7.9010 f          1 981      -0.118900
@<TRIPOS>BOND
     1     1     2 ar  
     2     1     6 ar  
     3     1    32 1   
     4     2     3 ar  
     5     2    34 1   
     6     3     8 ar  
     7     3    33 1   
     8     4     5 1   
     9     4    27 1   
    10     4    35 1   
    11     4    55 1   
    12     5    25 1   
    13     5    36 1   
    14     5    56 1   
    15     6     7 ar  
    16     6    37 1   
    17     7     8 ar  
    18     7    38 1   
    19     8     9 1   
    20     9    10 2   
    21     9    18 1   
    22    10    11 1   
    23    10    39 1   
    24    11    12 ar  
    25    11    19 ar  
    26    12    26 ar  
    27    12    40 1   
    28    13    14 ar  
    29    13    21 ar  
    30    13    41 1   
    31    14    15 ar  
    32    14    58 1   
    33    15    23 ar  
    34    15    27 1   
    35    16    17 1   
    36    16    27 1   
    37    16    42 1   
    38    16    43 1   
    39    17    25 1   
    40    17    44 1   
    41    17    45 1   
    42    18    28 1   
    43    18    31 2   
    44    19    28 1   
    45    19    29 ar  
    46    20    26 ar  
    47    20    29 ar  
    48    20    30 1   
    49    21    22 ar  
    50    21    30 1   
    51    22    23 ar  
    52    22    46 1   
    53    23    47 1   
    54    24    50 1   
    55    24    51 1   
    56    24    52 1   
    57    24    57 1   
    58    25    53 1   
    59    28    57 1   
    60    30    54 1   
    61    48    57 1   
    62    49    57 1   
@<TRIPOS>SUBSTRUCTURE
     1 981         1 TEMP              0 ****  ****    0 ROOT
