@<TRIPOS>MOLECULE
molecule
   58    62     1     0     0
SMALL
bcc


@<TRIPOS>ATOM
      1 CAB          0.0000     0.0000     0.0000 ca         1 981       0.039400
      2 CAC          1.3840     0.0000     0.0000 ca         1 981      -0.119000
      3 CAD          2.0770     0.0000     1.1950 ca         1 981       0.050400
      4 CAG          7.4550    -6.4240    11.2300 c3         1 981       0.171300
      5 CAH          8.2790    -7.6580    11.6060 c3         1 981       0.156800
      6 CAJ         -0.6980     0.0010     1.1950 ca         1 981      -0.123000
      7 CAK         -0.0160     0.0000     2.3950 ca         1 981      -0.084000
      8 CAL          1.3780    -0.0010     2.4030 ca         1 981      -0.021800
      9 CAM          2.1150    -0.0010     3.6880 cc         1 981      -0.161400
     10 CAN          2.7280    -1.1410     4.1320 cd         1 981       0.001800
     11 CAO          3.4240    -1.1110     5.3620 ca         1 981      -0.425400
     12 CAP          4.0680    -2.2530     5.8620 ca         1 981       0.551200
     13 CAR          6.7860    -2.9150     8.3900 ca         1 981      -0.169000
     14 CAS          7.5110    -4.0150     8.8080 ca         1 981       0.175900
     15 CAT          7.5960    -4.3170    10.1630 ca         1 981       0.026600
     16 CAV          9.4190    -5.0330    11.4880 c3         1 981       0.171300
     17 CAW         10.2430    -6.2680    11.8650 c3         1 981       0.156800
     18 CAX          2.2000     1.2210     4.4920 c          1 981       0.709700
     19 CAZ          3.4820     0.0800     6.1160 ca         1 981       0.643200
     20 CBB          4.7360    -1.0280     7.6980 ca         1 981       0.978900
     21 CBD          6.1490    -2.1080     9.3240 ca         1 981       0.176600
     22 CBE          6.2380    -2.4080    10.6770 ca         1 981      -0.171000
     23 CBF          6.9530    -3.5140    11.0940 ca         1 981      -0.119000
     24 CBI          1.7630     2.5080     7.4220 c3         1 981      -0.107100
     25 NAI          9.3690    -7.2600    12.5070 n7         1 981      -0.823200
     26 NAQ          4.7020    -2.1670     7.0160 nb         1 981      -0.806000
     27 NAU          8.3290    -5.4320    10.5880 nh         1 981      -0.610000
     28 NAY          2.8690     1.2210     5.6600 n          1 981      -0.408300
     29 NBA          4.1440     0.0750     7.2680 nb         1 981      -0.843000
     30 NBC          5.4140    -0.9930     8.9010 nu         1 981      -0.744300
     31 OBG          1.6610     2.2410     4.1010 o          1 981      -0.615500
     32 ClAA        -0.8640     0.0070    -1.5060 cl         1 981      -0.099400
     33 ClAE         3.8130    -0.0020     1.1940 cl         1 981      -0.094400
     34 H1           1.9250    -0.0000    -0.9390 ha         1 981       0.158000
     35 H2           7.0200    -5.9950    12.1250 h1         1 981       0.044700
     36 H3           7.6420    -8.3770    12.1070 h1         1 981       0.041200
     37 H4          -1.7810     0.0010     1.1890 ha         1 981       0.149000
     38 H5          -0.5630     0.0000     3.3300 ha         1 981       0.149000
     39 H6           2.5270    -2.0880     3.6470 ha         1 981       0.148000
     40 H7           4.0460    -3.1860     5.3120 h4         1 981       0.042100
     41 H8           6.7180    -2.6800     7.3340 ha         1 981       0.173000
     42 H9          10.0560    -4.3150    10.9870 h1         1 981       0.044700
     43 H10          9.0030    -4.5910    12.3850 h1         1 981       0.044700
     44 H11         11.0290    -5.9800    12.5530 h1         1 981       0.041200
     45 H12         10.6780    -6.6970    10.9700 h1         1 981       0.041200
     46 H13          5.7390    -1.7800    11.4040 ha         1 981       0.136000
     47 H14          7.0200    -3.7480    12.1500 ha         1 981       0.146000
     48 H15          3.8730     2.4690     7.0110 h1         1 981       0.077700
     49 H16          2.9090     3.3060     5.7870 h1         1 981       0.077700
     50 H17          1.3210     1.5230     7.5090 hc         1 981       0.045367
     51 H18          2.1430     2.8200     8.3870 hc         1 981       0.045367
     52 H19          1.0130     3.2120     7.0840 hc         1 981       0.045367
     53 H20          9.9070    -8.0660    12.7570 hn         1 981       0.355800
     54 H21          5.4060    -0.1600     9.4560 hn         1 981       0.471800
     55 H22          6.6700    -6.7110    10.5420 h1         1 981       0.044700
     56 H23          8.6960    -8.1000    10.7090 h1         1 981       0.041200
     57 CBH          2.9460     2.4520     6.4520 c3         1 981       0.095000
     58 FAF          8.1350    -4.7960     7.9010 f          1 981      -0.123900
@<TRIPOS>BOND
     1    33     3 1
     2     2     3 ar
     3     2     1 ar
     4    32     1 1
     5     3     8 ar
     6     1     6 ar
     7     8     9 1
     8     8     7 ar
     9    10     9 2
    10    10    11 1
    11    12    26 ar
    12    12    11 ar
    13     6     7 ar
    14     9    18 1
    15    26    20 ar
    16    11    19 ar
    17    20    29 ar
    18    20    30 1
    19    19    29 ar
    20    19    28 1
    21    18    31 2
    22    18    28 1
    23    30    21 1
    24    28    57 1
    25    22    21 ar
    26    22    23 ar
    27    21    13 ar
    28    24    57 1
    29    23    15 ar
    30    13    14 ar
    31    15    14 ar
    32    15    27 1
    33    14    58 1
    34    16    27 1
    35    16    17 1
    36    27     4 1
    37     4     5 1
    38    17    25 1
    39     5    25 1
    40     2    34 1
    41     4    35 1
    42     5    36 1
    43     6    37 1
    44     7    38 1
    45    10    39 1
    46    12    40 1
    47    13    41 1
    48    16    42 1
    49    16    43 1
    50    17    44 1
    51    17    45 1
    52    22    46 1
    53    23    47 1
    54    57    48 1
    55    57    49 1
    56    24    50 1
    57    24    51 1
    58    24    52 1
    59    25    53 1
    60    30    54 1
    61     4    55 1
    62     5    56 1
@<TRIPOS>SUBSTRUCTURE
     1 981         1 TEMP              0 ****  ****    0 ROOT
