@<TRIPOS>MOLECULE
molecule
   22    23     1     0     0
SMALL
bcc


@<TRIPOS>ATOM
      1 C1           0.0000     0.0000     0.0000 ca         1 982      -0.048000
      2 C2           1.3750     0.0000     0.0000 ca         1 982      -0.296300
      3 C3           2.0780     0.0000     1.1960 ca         1 982       0.384200
      4 N1           1.4370     0.0000     2.3480 nb         1 982      -0.678000
      5 C5           0.1220    -0.0010     2.4010 ca         1 982       0.468600
      6 C6          -0.6860    -0.0060     1.2410 ca         1 982      -0.197100
      7 S10         -1.0500    -0.0010     3.7360 ss         1 982      -0.244900
      8 C11         -2.5590    -0.0010     2.7890 cc         1 982       0.023400
      9 C12         -2.1180    -0.0010     1.4870 cd         1 982       0.056900
     10 C13         -3.8950    -0.0010     3.2660 c          1 982       0.894800
     11 O14         -4.8210    -0.0010     2.4770 o          1 982      -0.809800
     12 O15         -3.0000    -0.0010     0.4560 os         1 982      -0.261900
     13 C16         -3.2680     1.3670     0.1410 c3         1 982       0.022400
     14 C17         -4.2470     1.4360    -1.0030 c          1 982       0.905600
     15 O20         -4.6690     0.4190    -1.4990 o          1 982      -0.855300
     16 O21         -4.1380    -0.0020     4.5920 o          1 982      -0.809800
     17 O22         -4.6470     2.6280    -1.4720 o          1 982      -0.855300
     18 HC1         -0.5500    -0.0000    -0.9330 ha         1 982       0.154000
     19 HC2          1.9130    -0.0000    -0.9400 ha         1 982       0.109000
     20 HC3          3.1610    -0.0000     1.1830 h4         1 982      -0.008900
     21 H161        -3.6900     1.8610     1.0080 h1         1 982       0.023700
     22 H162        -2.3460     1.8600    -0.1420 h1         1 982       0.023700
@<TRIPOS>BOND
     1     1     2 ar
     2     1     6 ar
     3     1    18 1
     4     2     3 ar
     5     2    19 1
     6     3     4 ar
     7     3    20 1
     8     4     5 ar
     9     5     6 ar
    10     5     7 1
    11     6     9 1
    12     7     8 1
    13     8     9 2
    14     8    10 1
    15     9    12 1
    16    10    11 1
    17    10    16 1
    18    12    13 1
    19    13    14 1
    20    13    21 1
    21    13    22 1
    22    14    15 1
    23    14    17 1
@<TRIPOS>SUBSTRUCTURE
     1 982         1 TEMP              0 ****  ****    0 ROOT
