@<TRIPOS>MOLECULE
982
   22    23     1     0     0
SMALL
bcc


@<TRIPOS>ATOM
      1 C1         -0.3080    0.0910   -0.0020 ca        1 982     -0.046000
      2 C2          1.0750    0.0260   -0.0920 ca        1 982     -0.293300
      3 C3          1.8460   -0.0190    1.0960 ca        1 982      0.360200
      4 N1          1.3370   -0.0040    2.3340 nb        1 982     -0.673000
      5 C5         -0.0170    0.0580    2.4230 ca        1 982      0.374600
      6 C6         -0.8790    0.1070    1.2790 ca        1 982     -0.193100
      7 S10        -0.9390    0.0820    3.8460 ss        1 982     -0.117900
      8 C11        -2.4360    0.1720    3.0290 cc        1 982     -0.094600
      9 C12        -2.2750    0.1650    1.6660 cd        1 982      0.093900
     10 C13        -3.6940    0.2510    3.8700 c         1 982      0.939800
     11 O14        -4.1890    1.3920    4.0830 o         1 982     -0.823300
     12 O15        -3.2760    0.0890    0.7250 os        1 982     -0.296900
     13 C16        -3.4660    1.3000   -0.0300 c3        1 982      0.016400
     14 C17        -3.5530    0.9940   -1.5380 c         1 982      0.905600
     15 O20        -2.5440    0.5180   -2.1410 o         1 982     -0.855800
     16 O21        -4.1450   -0.8200    4.3640 o         1 982     -0.823300
     17 O22        -4.6200    1.3130   -2.1370 o         1 982     -0.855800
     18 HC1        -0.9750    0.1380   -0.8930 ha        1 982      0.226000
     19 HC2         1.5750    0.0120   -1.0670 ha        1 982      0.116000
     20 HC3         2.9460   -0.0700    1.0380 h4        1 982     -0.021900
     21 H161       -2.6290    2.0220    0.1420 h1        1 982      0.031200
     22 H162       -4.4310    1.7390    0.3360 h1        1 982      0.031200
@<TRIPOS>BOND
     1    1    2 ar  
     2    1    6 ar  
     3    1   18 1   
     4    2    3 ar  
     5    2   19 1   
     6    3    4 ar  
     7    3   20 1   
     8    4    5 ar  
     9    5    6 ar  
    10    5    7 1   
    11    6    9 1   
    12    7    8 1   
    13    8    9 2   
    14    8   10 1   
    15    9   12 1   
    16   10   11 1   
    17   10   16 1   
    18   12   13 1   
    19   13   14 1   
    20   13   21 1   
    21   13   22 1   
    22   14   15 1   
    23   14   17 1   
@<TRIPOS>SUBSTRUCTURE
     1 982         1 TEMP              0 ****  ****    0 ROOT
