@<TRIPOS>MOLECULE
983
   83    85     1     0     0
SMALL
bcc


@<TRIPOS>ATOM
      1 C49          0.0000     0.0000     0.0000 ca         1 983      -0.073500
      2 C50          1.3820     0.0000     0.0000 ca         1 983      -0.110500
      3 C51          2.0730     0.0000     1.1970 ca         1 983      -0.099000
      4 C52          1.3830    -0.0000     2.3950 ca         1 983      -0.110500
      5 C53         -0.0010     0.0000     2.3950 ca         1 983      -0.073500
      6 C48         -0.6910    -0.0010     1.1970 ca         1 983      -0.108300
      7 C47         -2.1980    -0.0000     1.1960 c3         1 983       0.297700
      8 O46         -2.6820    -1.3700     1.1960 os         1 983      -0.417900
      9 C44         -4.0170    -1.5460     1.1950 c          1 983       0.683100
     10 O45         -4.7570    -0.5820     1.1950 o          1 983      -0.666000
     11 N43         -4.5330    -2.7910     1.1950 ns         1 983      -0.170900
     12 C34         -5.9850    -2.9830     1.1940 c3         1 983       0.060700
     13 C35         -6.5070    -2.9240    -0.2430 c3         1 983       0.009900
     14 C36         -6.2870    -1.5410    -0.8010 ca         1 983      -0.066300
     15 C37         -5.1100    -1.2420    -1.4610 ca         1 983      -0.090000
     16 C38         -4.9080     0.0260    -1.9730 ca         1 983      -0.097000
     17 C41         -5.8840     0.9950    -1.8250 ca         1 983      -0.109000
     18 C40         -7.0610     0.6940    -1.1660 ca         1 983      -0.097000
     19 C39         -7.2640    -0.5750    -0.6570 ca         1 983      -0.090000
     20 C33         -6.3200    -4.3460     1.8030 c3         1 983      -0.043600
     21 S32         -5.8340    -4.3630     3.5510 s6         1 983       0.930900
     22 O32         -4.4190    -4.3220     3.6750 o          1 983      -0.615800
     23 O33         -6.6610    -3.4900     4.3070 o          1 983      -0.615800
     24 N31         -6.2470    -5.8770     4.0800 n7         1 983      -0.480100
     25 C27         -5.5470    -7.0520     3.5560 c3         1 983       0.172300
     26 C28         -4.7090    -7.6840     4.6700 c3         1 983      -0.039700
     27 C30         -3.8720    -8.8270     4.0920 c3         1 983      -0.015600
     28 C29         -3.7810    -6.6280     5.2710 c3         1 983      -0.015600
     29 P24         -6.7650    -8.2650     2.9490 p5         1 983       0.337400
     30 O25         -7.7900    -7.5710     2.1400 o          1 983      -0.602000
     31 O26         -7.4700    -8.9910     4.2020 o          1 983      -0.602000
     32 C15         -5.9200    -9.5120     1.9210 c3         1 983      -0.031600
     33 C1          -6.9620   -10.3800     1.2130 c3         1 983      -0.090400
     34 C2          -7.5700   -11.3430     2.2010 c          1 983       0.970600
     35 O14         -7.2060   -11.3360     3.3530 o          1 983      -0.858300
     36 O13         -8.5150   -12.2090     1.8000 o          1 983      -0.858300
     37 C3          -6.3010   -11.1520     0.1000 ca         1 983       0.051700
     38 C8          -6.7230   -10.9810    -1.2040 ca         1 983      -0.084000
     39 C4          -5.2690   -12.0270     0.3850 ca         1 983      -0.029000
     40 C5          -4.6630   -12.7350    -0.6350 ca         1 983      -0.105000
     41 C6          -5.0880   -12.5690    -1.9400 ca         1 983      -0.141000
     42 C7          -6.1150   -11.6900    -2.2260 ca         1 983      -0.238300
     43 C9          -6.5760   -11.5030    -3.6480 c3         1 983       0.047100
     44 N10         -5.8060   -10.4200    -4.2750 nz         1 983       0.053400
     45 H49         -0.5420    -0.0010    -0.9380 ha         1 983       0.108500
     46 H50          1.9240     0.0010    -0.9380 ha         1 983       0.099500
     47 H51          3.1560    -0.0000     1.1970 ha         1 983       0.096000
     48 H52          1.9240     0.0000     3.3330 ha         1 983       0.099500
     49 H53         -0.5430    -0.0010     3.3330 ha         1 983       0.108500
     50 H471        -2.5600     0.5100     2.0810 h1         1 983       0.013700
     51 H472        -2.5590     0.5100     0.3120 h1         1 983       0.013700
     52 HN43        -3.9230    -3.5840     1.1620 hn         1 983       0.191500
     53 H34         -6.4520    -2.2010     1.7800 h1         1 983       0.071700
     54 H351        -7.5650    -3.1530    -0.2520 hc         1 983       0.023700
     55 H352        -5.9750    -3.6470    -0.8500 hc         1 983       0.023700
     56 H37         -4.3460    -2.0010    -1.5770 ha         1 983       0.101500
     57 H38         -3.9860     0.2620    -2.4900 ha         1 983       0.092000
     58 H41         -5.7250     1.9890    -2.2250 ha         1 983       0.091000
     59 H40         -7.8260     1.4530    -1.0520 ha         1 983       0.092000
     60 H39         -8.1870    -0.8100    -0.1410 ha         1 983       0.101500
     61 H331        -5.7820    -5.1210     1.2710 h1         1 983       0.092200
     62 H332        -7.3860    -4.5250     1.7230 h1         1 983       0.092200
     63 HN31        -6.9840    -5.9900     4.7470 hn         1 983       0.362800
     64 H27         -4.8980    -6.7530     2.7420 h1         1 983       0.004700
     65 H28         -5.3640    -8.0710     5.4400 hc         1 983       0.062700
     66 H301        -4.4110    -9.7600     4.2010 hc         1 983       0.000533
     67 H302        -3.6820    -8.6400     3.0410 hc         1 983       0.000533
     68 H303        -2.9300    -8.8900     4.6230 hc         1 983       0.000533
     69 H291        -3.1240    -7.0940     5.9950 hc         1 983       0.000533
     70 H292        -4.3730    -5.8640     5.7610 hc         1 983       0.000533
     71 H293        -3.1890    -6.1770     4.4840 hc         1 983       0.000533
     72 H151        -5.3030    -9.0140     1.1830 hc         1 983       0.008200
     73 H152        -5.2980   -10.1370     2.5500 hc         1 983       0.008200
     74 H1          -7.7390    -9.7470     0.8010 hc         1 983       0.056700
     75 H8          -7.5280   -10.2910    -1.4270 ha         1 983       0.111000
     76 H4          -4.9360   -12.1570     1.4070 ha         1 983       0.142000
     77 H5          -3.8560   -13.4220    -0.4120 ha         1 983       0.099000
     78 H6          -4.6120   -13.1240    -2.7390 ha         1 983       0.078000
     79 H91         -6.4220   -12.4220    -4.2010 hx         1 983       0.069200
     80 H92         -7.6290   -11.2490    -3.6560 hx         1 983       0.069200
     81 H101        -4.8300   -10.5630    -4.1050 hn         1 983       0.214800
     82 H102        -5.9760   -10.4170    -5.2610 hn         1 983       0.214800
     83 H103        -6.0870    -9.5420    -3.8850 hn         1 983       0.214800
@<TRIPOS>BOND
     1     1     2 ar  
     2     1     6 ar  
     3     1    45 1   
     4     2     3 ar  
     5     2    46 1   
     6     3     4 ar  
     7     3    47 1   
     8     4     5 ar  
     9     4    48 1   
    10     5     6 ar  
    11     5    49 1   
    12     6     7 1   
    13     7     8 1   
    14     7    50 1   
    15     7    51 1   
    16     8     9 1   
    17     9    10 2   
    18     9    11 1   
    19    11    12 1   
    20    11    52 1   
    21    12    13 1   
    22    12    20 1   
    23    12    53 1   
    24    13    14 1   
    25    13    54 1   
    26    13    55 1   
    27    14    15 ar  
    28    14    19 ar  
    29    15    16 ar  
    30    15    56 1   
    31    16    17 ar  
    32    16    57 1   
    33    17    18 ar  
    34    17    58 1   
    35    18    19 ar  
    36    18    59 1   
    37    19    60 1   
    38    20    21 1   
    39    20    61 1   
    40    20    62 1   
    41    21    22 2   
    42    21    23 2   
    43    21    24 1   
    44    24    25 1   
    45    24    63 1   
    46    25    26 1   
    47    25    29 1   
    48    25    64 1   
    49    26    27 1   
    50    26    28 1   
    51    26    65 1   
    52    27    66 1   
    53    27    67 1   
    54    27    68 1   
    55    28    69 1   
    56    28    70 1   
    57    28    71 1   
    58    29    30 1   
    59    29    31 1   
    60    29    32 1   
    61    32    33 1   
    62    32    72 1   
    63    32    73 1   
    64    33    34 1   
    65    33    37 1   
    66    33    74 1   
    67    34    35 1   
    68    34    36 1   
    69    37    38 ar  
    70    37    39 ar  
    71    38    42 ar  
    72    38    75 1   
    73    39    40 ar  
    74    39    76 1   
    75    40    41 ar  
    76    40    77 1   
    77    41    42 ar  
    78    41    78 1   
    79    42    43 1   
    80    43    44 1   
    81    43    79 1   
    82    43    80 1   
    83    44    81 1   
    84    44    82 1   
    85    44    83 1   
@<TRIPOS>SUBSTRUCTURE
     1 983         1 TEMP              0 ****  ****    0 ROOT
