@<TRIPOS>MOLECULE
984
   63    67     1     0     0
SMALL
bcc


@<TRIPOS>ATOM
      1 N1           0.0000     0.0000     0.0000 na         1 984       0.333100
      2 C2           1.3490     0.0000     0.0000 cc         1 984       0.209800
      3 N3           1.7860     0.0000     1.2280 nd         1 984      -0.597000
      4 C4           0.7430    -0.0020     2.0780 cd         1 984       0.392800
      5 C5          -0.4110     0.0050     1.3140 cc         1 984      -0.482100
      6 C6          -0.8680     0.0010    -1.1810 c3         1 984      -0.080700
      7 C7          -1.1710    -1.4400    -1.5930 c3         1 984      -0.045400
      8 C10         -2.0770    -1.4390    -2.8250 c3         1 984       0.009900
      9 C16          2.2180     0.0020    -1.2320 c3         1 984      -0.055000
     10 C17          3.1020     1.2510    -1.2340 c3         1 984      -0.024400
     11 C18          4.0600     1.1880    -2.4250 c3         1 984       0.141300
     12 N19          4.9260     0.0100    -2.3040 n3         1 984      -0.515600
     13 C20          4.0690    -1.1750    -2.4210 c3         1 984       0.141300
     14 C21          3.1120    -1.2410    -1.2290 c3         1 984      -0.024400
     15 C31          5.8070     0.0110    -3.4790 c3         1 984       0.171100
     16 C35          0.8170    -0.0020     3.5570 ca         1 984      -0.073500
     17 C36         -1.7990     0.0070     1.8080 ca         1 984       0.575800
     18 C37         -0.0670     0.7760     4.3010 ca         1 984      -0.079000
     19 C38          0.0020     0.7680     5.6810 ca         1 984      -0.040600
     20 C39          0.9560    -0.0040     6.3230 ca         1 984      -0.041600
     21 C40          1.8400    -0.7740     5.5870 ca         1 984      -0.096000
     22 C41          1.7750    -0.7780     4.2090 ca         1 984      -0.067000
     23 Cl45        -1.1020     1.7320     6.6110 cl         1 984      -0.015400
     24 Cl46         1.0430    -0.0060     8.0570 cl         1 984      -0.016400
     25 C47         -2.7790     0.7840     1.1750 ca         1 984      -0.448600
     26 C48         -4.0670     0.7540     1.6740 ca         1 984       0.501200
     27 N49         -4.3360    -0.0040     2.7280 nb         1 984      -0.702000
     28 C50         -3.3910    -0.7280     3.3070 ca         1 984       0.726900
     29 N51         -2.1450    -0.7340     2.8610 nb         1 984      -0.679000
     30 N54         -3.7170    -1.5050     4.4060 nu         1 984      -0.418900
     31 C55         -5.0910    -1.5180     4.9120 cx         1 984       0.061500
     32 C56         -5.5830    -2.7990     5.5880 cx         1 984      -0.094400
     33 C57         -5.2850    -1.5570     6.4300 cx         1 984      -0.094400
     34 HC61        -0.3680     0.5120    -1.9950 h1         1 984       0.049700
     35 HC62        -1.7940     0.5120    -0.9480 h1         1 984       0.049700
     36 HC71        -0.2440    -1.9520    -1.8260 hc         1 984       0.027700
     37 HC72        -1.6700    -1.9510    -0.7780 hc         1 984       0.027700
     38 H101        -1.7210    -0.7010    -3.5340 hc         1 984       0.005367
     39 H102        -3.0900    -1.1950    -2.5290 hc         1 984       0.005367
     40 H103        -2.0610    -2.4190    -3.2860 hc         1 984       0.005367
     41 H16          1.5970    -0.0030    -2.1200 hc         1 984       0.020700
     42 H171         3.6720     1.2910    -0.3140 hc         1 984       0.032700
     43 H172         2.4790     2.1330    -1.3190 hc         1 984       0.032700
     44 H181         3.4880     1.1190    -3.3430 h1         1 984       0.009700
     45 H182         4.6710     2.0820    -2.4420 h1         1 984       0.009700
     46 H201         3.4950    -1.1140    -3.3380 h1         1 984       0.009700
     47 H202         4.6870    -2.0650    -2.4350 h1         1 984       0.009700
     48 H211         2.4960    -2.1290    -1.3100 hc         1 984       0.032700
     49 H212         3.6840    -1.2730    -0.3090 hc         1 984       0.032700
     50 H311         5.2070     0.0060    -4.3810 h1         1 984       0.002367
     51 H312         6.4280     0.8990    -3.4640 h1         1 984       0.002367
     52 H313         6.4370    -0.8700    -3.4590 h1         1 984       0.002367
     53 H37         -0.8130     1.3810     3.7990 ha         1 984       0.121000
     54 H40          2.5840    -1.3770     6.0950 ha         1 984       0.116000
     55 H41          2.4680    -1.3810     3.6350 ha         1 984       0.121000
     56 H47         -2.5320     1.3950     0.3150 ha         1 984       0.129000
     57 H48         -4.8490     1.3420     1.2090 h4         1 984      -0.019900
     58 H54         -3.0240    -2.0950     4.8250 hn         1 984       0.299800
     59 H55         -5.8530    -0.9700     4.3720 h1         1 984       0.096700
     60 H561        -6.6330    -3.0280     5.4490 hc         1 984       0.049200
     61 H562        -4.8550    -3.5980     5.6610 hc         1 984       0.049200
     62 H571        -6.1520    -1.0260     6.8040 hc         1 984       0.049200
     63 H572        -4.3750    -1.5970     7.0160 hc         1 984       0.049200
@<TRIPOS>BOND
     1     1     2 1   
     2     1     5 1   
     3     1     6 1   
     4     2     3 2   
     5     2     9 1   
     6     3     4 1   
     7     4     5 2   
     8     4    16 1   
     9     5    17 1   
    10     6     7 1   
    11     6    34 1   
    12     6    35 1   
    13     7     8 1   
    14     7    36 1   
    15     7    37 1   
    16     8    38 1   
    17     8    39 1   
    18     8    40 1   
    19     9    10 1   
    20     9    14 1   
    21     9    41 1   
    22    10    11 1   
    23    10    42 1   
    24    10    43 1   
    25    11    12 1   
    26    11    44 1   
    27    11    45 1   
    28    12    13 1   
    29    12    15 1   
    30    13    14 1   
    31    13    46 1   
    32    13    47 1   
    33    14    48 1   
    34    14    49 1   
    35    15    50 1   
    36    15    51 1   
    37    15    52 1   
    38    16    18 ar  
    39    16    22 ar  
    40    17    25 ar  
    41    17    29 ar  
    42    18    19 ar  
    43    18    53 1   
    44    19    20 ar  
    45    19    23 1   
    46    20    21 ar  
    47    20    24 1   
    48    21    22 ar  
    49    21    54 1   
    50    22    55 1   
    51    25    26 ar  
    52    25    56 1   
    53    26    27 ar  
    54    26    57 1   
    55    27    28 ar  
    56    28    29 ar  
    57    28    30 1   
    58    30    31 1   
    59    30    58 1   
    60    31    32 1   
    61    31    33 1   
    62    31    59 1   
    63    32    33 1   
    64    32    60 1   
    65    32    61 1   
    66    33    62 1   
    67    33    63 1   
@<TRIPOS>SUBSTRUCTURE
     1 984         1 TEMP              0 ****  ****    0 ROOT
