@<TRIPOS>MOLECULE
985
   46    50     1     0     0
SMALL
bcc


@<TRIPOS>ATOM
      1 C1           0.0000     0.0000     0.0000 c2         1 985      -0.009000
      2 N2           1.3300     0.0000     0.0000 n2         1 985      -0.056000
      3 C3           1.9890     0.0000     1.1500 c2         1 985      -0.103000
      4 C4           1.2870    -0.0010     2.3540 c2         1 985      -0.110000
      5 N5          -0.0340    -0.0010     2.3500 n2         1 985      -0.028000
      6 C6          -0.6950     0.0000     1.2070 c2         1 985      -0.119000
      7 N1           3.3780    -0.0010     1.1560 nh         1 985       0.030000
      8 C2           3.8970    -1.1980     0.5400 c3         1 985      -0.096000
      9 C11          5.1640    -1.7210     1.2410 c3         1 985      -0.075000
     10 N3           6.1020    -0.6370     1.6170 n3         1 985      -0.058000
     11 C5           6.2620     0.3830     0.6110 c3         1 985      -0.087000
     12 C14          5.2680     1.5260     0.9030 c3         1 985      -0.112000
     13 C7           3.9130     1.1950     0.4660 c3         1 985      -0.088000
     14 C8           7.4030    -1.1830     2.0250 c3         1 985      -0.090000
     15 C10         -2.1150     0.0180    -3.7030 c2         1 985      -0.184000
     16 C16         -0.7350     0.0180    -3.6930 c2         1 985      -0.073000
     17 C12         -0.0470     0.0120    -2.4940 c2         1 985      -0.163000
     18 C13         -0.7430     0.0070    -1.2850 c2         1 985      -0.026000
     19 C17         -2.1330     0.0070    -1.2850 c2         1 985      -0.194000
     20 C15         -2.8250     0.0130    -2.4980 c3         1 985       0.084000
     21 C18         -4.2970     0.0120    -2.5080 c2         1 985      -0.082000
     22 C19         -4.9630     0.0190    -3.6810 c2         1 985      -0.170000
     23 C9          -6.4260     0.0190    -3.6920 c3         1 985       0.501000
     24 O1          -7.0910     0.0250    -4.8650 o          1 985      -0.584000
     25 O2          -7.0410     0.0140    -2.6440 o          1 985      -0.584000
     26 H4           1.8250    -0.0010     3.2940 h4         1 985       0.132000
     27 H6          -1.7780     0.0000     1.2080 h4         1 985       0.146000
     28 H2           3.1360    -1.9680     0.5760 h1         1 985       0.060000
     29 H2A          4.1360    -0.9820    -0.4950 h1         1 985       0.060000
     30 H11          4.8700    -2.2530     2.1380 h1         1 985       0.044500
     31 H11A         5.6730    -2.4060     0.5740 h1         1 985       0.044500
     32 H5           6.0560    -0.0360    -0.3670 h1         1 985       0.047500
     33 H5A          7.2750     0.7670     0.6420 h1         1 985       0.047500
     34 H14          5.2550     1.7170     1.9690 hc         1 985       0.062000
     35 H14A         5.5960     2.4180     0.3840 hc         1 985       0.062000
     36 H7           3.2640     2.0380     0.6710 h1         1 985       0.057000
     37 H7A          3.9270     1.0070    -0.6010 h1         1 985       0.057000
     38 H8           8.0030    -0.3950     2.4640 h1         1 985       0.035333
     39 H8A          7.2510    -1.9700     2.7550 h1         1 985       0.035333
     40 H8B          7.9130    -1.5870     1.1590 h1         1 985       0.035333
     41 H12          1.0360     0.0120    -2.4930 ha         1 985       0.110000
     42 H17         -2.6770     0.0020    -0.3480 ha         1 985       0.120000
     43 H18         -3.6840     0.8890    -2.6820 DU         1 985       0.023000
     44 H19         -5.5760     0.8930    -3.4960 DU         1 985       0.078000
     45 H10         -2.6490     0.0230    -4.6450 ha         1 985       0.129000
     46 H16         -0.1890     0.0230    -4.6280 ha         1 985       0.090000
@<TRIPOS>BOND
     1     1     2 1   
     2     1     6 1   
     3     1    18 1   
     4     2     3 1   
     5     3     4 1   
     6     3     7 1   
     7     4     5 1   
     8     4    26 1   
     9     5     6 1   
    10     6    27 1   
    11     7     8 1   
    12     7    13 1   
    13     8     9 1   
    14     8    28 1   
    15     8    29 1   
    16     9    10 1   
    17     9    30 1   
    18     9    31 1   
    19    10    11 1   
    20    10    14 1   
    21    11    12 1   
    22    11    32 1   
    23    11    33 1   
    24    12    13 1   
    25    12    34 1   
    26    12    35 1   
    27    13    36 1   
    28    13    37 1   
    29    14    38 1   
    30    14    39 1   
    31    14    40 1   
    32    15    16 1   
    33    15    20 1   
    34    15    45 1   
    35    16    17 1   
    36    16    46 1   
    37    17    18 1   
    38    17    41 1   
    39    18    19 1   
    40    19    20 1   
    41    19    42 1   
    42    20    21 1   
    43    20    43 1   
    44    21    22 1   
    45    21    43 1   
    46    22    23 1   
    47    22    44 1   
    48    23    24 1   
    49    23    25 1   
    50    23    44 1   
@<TRIPOS>SUBSTRUCTURE
     1 985         1 TEMP              0 ****  ****    0 ROOT
