@<TRIPOS>MOLECULE
molecule
   46    48     1     0     0
SMALL
bcc


@<TRIPOS>ATOM
      1 C1           0.0000     0.0000     0.0000 cp         1 985       0.391500
      2 N2           1.3300     0.0000     0.0000 nb         1 985      -0.704000
      3 C3           1.9890     0.0000     1.1500 ca         1 985       0.471900
      4 C4           1.2870    -0.0010     2.3540 ca         1 985       0.306900
      5 N5          -0.0340    -0.0010     2.3500 nb         1 985      -0.653000
      6 C6          -0.6950     0.0000     1.2070 ca         1 985       0.293900
      7 N1           3.3780    -0.0010     1.1560 nh         1 985      -0.694300
      8 C2           3.8970    -1.1980     0.5400 c3         1 985       0.167800
      9 C11          5.1640    -1.7210     1.2410 c3         1 985       0.177800
     10 N3           6.1020    -0.6370     1.6170 n3         1 985      -0.734600
     11 C5           6.2620     0.3830     0.6110 c3         1 985       0.171800
     12 C14          5.2680     1.5260     0.9030 c3         1 985      -0.080400
     13 C7           3.9130     1.1950     0.4660 c3         1 985       0.175800
     14 C8           7.4030    -1.1830     2.0250 c3         1 985       0.158100
     15 C10         -2.1150     0.0180    -3.7030 ca         1 985      -0.121000
     16 C16         -0.7350     0.0180    -3.6930 ca         1 985      -0.140000
     17 C12         -0.0470     0.0120    -2.4940 ca         1 985      -0.119000
     18 C13         -0.7430     0.0070    -1.2850 cp         1 985      -0.166500
     19 C17         -2.1330     0.0070    -1.2850 ca         1 985      -0.121000
     20 C15         -2.8250     0.0130    -2.4980 ca         1 985      -0.013800
     21 C18         -4.2970     0.0120    -2.5080 ce         1 985      -0.187200
     22 C19         -4.9630     0.0190    -3.6810 cf         1 985      -0.133200
     23 C9          -6.4260     0.0190    -3.6920 c          1 985       0.864800
     24 O1          -7.0910     0.0250    -4.8650 o          1 985      -0.835800
     25 O2          -7.0410     0.0140    -2.6440 o          1 985      -0.835800
     26 H4           1.8250    -0.0010     3.2940 h4         1 985       0.038100
     27 H6          -1.7780     0.0000     1.2080 h4         1 985       0.044100
     28 H2           3.1360    -1.9680     0.5760 h1         1 985       0.045200
     29 H2A          4.1360    -0.9820    -0.4950 h1         1 985       0.045200
     30 H11          5.6730    -2.4060     0.5740 h1         1 985       0.032700
     31 H11A         4.8700    -2.2530     2.1380 h1         1 985       0.032700
     32 H5           6.0560    -0.0360    -0.3670 h1         1 985       0.029200
     33 H5A          7.2750     0.7670     0.6420 h1         1 985       0.029200
     34 H14          5.2550     1.7170     1.9690 hc         1 985       0.053700
     35 H14A         5.5960     2.4180     0.3840 hc         1 985       0.053700
     36 H7           3.2640     2.0380     0.6710 h1         1 985       0.042200
     37 H7A          3.9270     1.0070    -0.6010 h1         1 985       0.042200
     38 H8           7.2510    -1.9700     2.7550 h1         1 985       0.027033
     39 H8A          8.0030    -0.3950     2.4640 h1         1 985       0.027033
     40 H8B          7.9130    -1.5870     1.1590 h1         1 985       0.027033
     41 H12          1.0360     0.0120    -2.4930 ha         1 985       0.134000
     42 H17         -2.6770     0.0020    -0.3480 ha         1 985       0.132000
     43 H18         -4.8450     0.0070    -1.5740 ha         1 985       0.153000
     44 H19         -4.4140     0.0250    -4.6160 ha         1 985       0.104000
     45 H10         -2.6490     0.0230    -4.6450 ha         1 985       0.146000
     46 H16         -0.1890     0.0230    -4.6280 ha         1 985       0.120000
@<TRIPOS>BOND
     1    18     1 1
     2     1     2 ar
     3     1     6 ar
     4     2     3 ar
     5     3     7 1
     6     3     4 ar
     7     5     4 ar
     8     4    26 1
     9     6     5 ar
    10     6    27 1
    11     8     7 1
    12     7    13 1
    13     9     8 1
    14     8    28 1
    15     8    29 1
    16     9    10 1
    17     9    30 1
    18     9    31 1
    19    14    10 1
    20    10    11 1
    21    11    12 1
    22    11    32 1
    23    11    33 1
    24    13    12 1
    25    12    34 1
    26    12    35 1
    27    13    36 1
    28    13    37 1
    29    14    38 1
    30    14    39 1
    31    14    40 1
    32    15    16 ar
    33    15    20 ar
    34    15    45 1
    35    16    17 ar
    36    16    46 1
    37    17    18 ar
    38    17    41 1
    39    19    18 ar
    40    20    19 ar
    41    19    42 1
    42    21    20 1
    43    21    22 2
    44    21    43 1
    45    23    22 1
    46    22    44 1
    47    25    23 1
    48    23    24 1
@<TRIPOS>SUBSTRUCTURE
     1 985         1 TEMP              0 ****  ****    0 ROOT
