@<TRIPOS>MOLECULE
molecule
   60    63     1     0     0
SMALL
bcc


@<TRIPOS>ATOM
      1 C01          0.0000     0.0000     0.0000 c3         1 987      -0.102100
      2 C05          1.5300     0.0000     0.0000 c3         1 987       0.074700
      3 N07          2.0180    -1.1960    -0.6900 n          1 987      -0.495800
      4 C08          2.8700    -1.1720    -1.8860 c3         1 987       0.095000
      5 C11          3.4740    -2.5900    -1.9890 c3         1 987      -0.100400
      6 C14          2.4170    -3.4390    -1.2440 c3         1 987       0.166500
      7 N16          1.4490    -3.9980    -2.1900 n7         1 987      -0.899100
      8 S18          0.8070    -5.5010    -1.9260 sy         1 987       1.419200
      9 O19         -0.1100    -5.7380    -2.9860 o          1 987      -0.626300
     10 O20          1.9030    -6.3600    -1.6400 o          1 987      -0.626300
     11 C21         -0.1510    -5.4080    -0.4510 ca         1 987      -0.302500
     12 C22          0.4530    -5.6680     0.7780 ca         1 987      -0.028000
     13 C24         -0.2580    -5.6040     1.9370 ca         1 987      -0.121000
     14 C26         -1.6230    -5.2710     1.8970 ca         1 987       0.017000
     15 C27         -2.3900    -5.1950     3.0710 ca         1 987      -0.130000
     16 C29         -3.7100    -4.8680     2.9950 ca         1 987       0.048400
     17 Cl1         -4.6540    -4.7750     4.4480 cl         1 987      -0.104400
     18 C31         -4.3140    -4.6080     1.7650 ca         1 987      -0.134000
     19 C33         -3.6030    -4.6730     0.6060 ca         1 987      -0.088000
     20 C35         -2.2370    -5.0060     0.6470 ca         1 987      -0.067000
     21 C36         -1.4690    -5.0780    -0.5270 ca         1 987       0.007000
     22 C38          1.7490    -2.4560    -0.3080 c          1 987       0.688500
     23 O39          1.0660    -2.7610     0.6460 o          1 987      -0.590500
     24 C40          2.0320     0.0000     1.4210 c          1 987       0.649100
     25 O41          2.3580    -1.0420     1.9490 o          1 987      -0.547100
     26 N42          2.1190     1.1580     2.1050 n          1 987      -0.500800
     27 C43          1.6240     2.4120     1.5200 c3         1 987       0.091000
     28 C46          0.6430     3.0600     2.5010 c3         1 987      -0.090400
     29 C49          1.3230     3.2270     3.8620 c3         1 987      -0.103400
     30 C52          1.7150     1.8520     4.4090 c3         1 987       0.073500
     31 N54          2.3400     2.0100     5.7300 nz         1 987      -0.807600
     32 C57          2.7040     1.1900     3.4520 c3         1 987       0.096000
     33 H1          -0.3610    -0.7360    -0.7090 hc         1 987       0.057700
     34 H2          -0.3610     0.9810    -0.2830 hc         1 987       0.057700
     35 H3          -0.3610    -0.2460     0.9910 hc         1 987       0.057700
     36 H4           1.8910     0.8840    -0.5110 h1         1 987       0.070700
     37 H5           2.2750    -0.9550    -2.7640 h1         1 987       0.050200
     38 H6           3.6580    -0.4380    -1.7680 h1         1 987       0.050200
     39 H7           4.4320    -2.6380    -1.4850 hc         1 987       0.077700
     40 H8           3.5570    -2.8990    -3.0240 hc         1 987       0.077700
     41 H9           2.9000    -4.2260    -0.6780 h1         1 987       0.110700
     42 H10          1.2140    -3.4920    -3.0210 hn         1 987       0.457800
     43 H11          1.5030    -5.9330     0.8110 ha         1 987       0.146000
     44 H12          0.2250    -5.8080     2.8840 ha         1 987       0.139000
     45 H13         -1.9610    -5.4980     4.0190 ha         1 987       0.149000
     46 H14         -5.3660    -4.3500     1.7310 ha         1 987       0.148000
     47 H15         -4.0850    -4.4680    -0.3420 ha         1 987       0.144000
     48 H16         -1.9470    -4.9770    -1.4940 ha         1 987       0.154000
     49 H17          1.1170     2.2010     0.5860 h1         1 987       0.072700
     50 H18          2.4560     3.0840     1.3440 h1         1 987       0.072700
     51 H19         -0.2290     2.4260     2.6090 hc         1 987       0.079200
     52 H20          0.3460     4.0310     2.1250 hc         1 987       0.079200
     53 H21          2.2110     3.8360     3.7480 hc         1 987       0.065700
     54 H22          0.6360     3.7050     4.5510 hc         1 987       0.065700
     55 H23          0.8300     1.2340     4.4950 hx         1 987       0.128700
     56 H24          2.6110     1.1130     6.0800 hn         1 987       0.456467
     57 H25          1.6860     2.4310     6.3600 hn         1 987       0.456467
     58 H27          2.9050     0.1780     3.7830 h1         1 987       0.079200
     59 H28          3.6250     1.7610     3.4330 h1         1 987       0.079200
     60 H543         3.1340     2.6150     5.6530 hn         1 987       0.456467
@<TRIPOS>BOND
     1    31    30 1
     2    30    29 1
     3    30    32 1
     4    29    28 1
     5    32    26 1
     6    28    27 1
     7    26    27 1
     8    26    24 1
     9    25    24 2
    10    24     2 1
    11     2     1 1
    12     2     3 1
    13     3    22 1
    14     3     4 1
    15    23    22 2
    16    22     6 1
    17     4     5 1
    18     5     6 1
    19     7     6 1
    20     7     8 1
    21    12    13 ar
    22    12    11 ar
    23    10     8 2
    24    13    14 ar
    25     8    11 1
    26     8     9 2
    27    11    21 ar
    28    14    15 ar
    29    14    20 ar
    30    15    16 ar
    31    21    20 ar
    32    20    19 ar
    33    16    17 1
    34    16    18 ar
    35    19    18 ar
    36     1    33 1
    37     1    34 1
    38     1    35 1
    39     2    36 1
    40     4    37 1
    41     4    38 1
    42     5    39 1
    43     5    40 1
    44     6    41 1
    45     7    42 1
    46    12    43 1
    47    13    44 1
    48    15    45 1
    49    18    46 1
    50    19    47 1
    51    21    48 1
    52    27    49 1
    53    27    50 1
    54    28    51 1
    55    28    52 1
    56    29    53 1
    57    29    54 1
    58    30    55 1
    59    31    56 1
    60    31    57 1
    61    32    58 1
    62    32    59 1
    63    60    31 1
@<TRIPOS>SUBSTRUCTURE
     1 987         1 TEMP              0 ****  ****    0 ROOT
