@<TRIPOS>MOLECULE
molecule
   41    44     1     0     0
SMALL
bcc


@<TRIPOS>ATOM
      1 C1           0.0000     0.0000     0.0000 ca         1 988      -0.074000
      2 C2           1.4080     0.0000     0.0000 ca         1 988      -0.151300
      3 C3           2.0930     0.0000     1.2400 ca         1 988       0.428600
      4 N4           1.4030    -0.0000     2.3810 nb         1 988      -0.687000
      5 C5           0.0910    -0.0010     2.3860 ca         1 988       0.437200
      6 C6          -0.6450    -0.0000     1.2040 ca         1 988      -0.255300
      7 C13          2.1380     0.0000    -1.2000 ca         1 988      -0.096000
      8 C15          3.5010    -0.0010    -1.1690 ca         1 988      -0.078300
      9 C17          4.1890     0.0000     0.0390 ca         1 988      -0.093000
     10 C19          3.5090     0.0010     1.2430 cp         1 988      -0.085300
     11 C22          4.2540     0.0020     2.5230 cp         1 988      -0.032000
     12 C24          5.2760    -0.9230     2.7390 ca         1 988      -0.065000
     13 C25          5.9670    -0.9160     3.9330 ca         1 988      -0.159200
     14 C26          5.6470     0.0020     4.9160 ca         1 988      -0.070000
     15 C27          4.6340     0.9210     4.7080 ca         1 988      -0.140000
     16 C28          3.9390     0.9290     3.5160 ca         1 988      -0.046000
     17 C35          4.2710    -0.0020    -2.4630 c3         1 988       0.007200
     18 C37          4.5290     1.4180    -2.8960 ca         1 988      -0.046300
     19 C39          5.6740     2.0870    -2.4900 ca         1 988      -0.250300
     20 C40          5.8760     3.3900    -2.9070 ca         1 988       0.423200
     21 N41          4.9970     3.9950    -3.6810 nb         1 988      -0.690000
     22 C42          3.8980     3.3890    -4.0870 ca         1 988       0.423200
     23 C43          3.6300     2.0850    -3.7140 ca         1 988      -0.250300
     24 N50          7.0530    -1.8960     4.1630 no         1 988       0.295200
     25 O52          7.3350    -2.7060     3.2990 o          1 988      -0.208500
     26 O54          7.6630    -1.8920     5.2180 o          1 988      -0.208500
     27 H1          -0.5570     0.0010    -0.9290 ha         1 988       0.143000
     28 H5          -0.4330    -0.0010     3.3340 h4         1 988       0.026100
     29 H6          -1.7270    -0.0010     1.2400 ha         1 988       0.141000
     30 H13          1.6180    -0.0000    -2.1500 ha         1 988       0.137000
     31 H17          5.2720    -0.0010     0.0370 ha         1 988       0.142000
     32 H24          5.5280    -1.6430     1.9700 ha         1 988       0.166000
     33 H26          6.1910     0.0020     5.8530 ha         1 988       0.164000
     34 H27          4.3890     1.6400     5.4810 ha         1 988       0.148000
     35 H28          3.1460     1.6490     3.3550 ha         1 988       0.155000
     36 H35          3.6960    -0.5140    -3.2250 hc         1 988       0.062700
     37 H35A         5.2160    -0.5130    -2.3200 hc         1 988       0.062700
     38 H39          6.4000     1.5960    -1.8540 ha         1 988       0.137000
     39 H40          6.7680     3.9200    -2.5940 h4         1 988       0.024600
     40 H42          3.1990     3.9180    -4.7240 h4         1 988       0.024600
     41 H43          2.7260     1.5940    -4.0500 ha         1 988       0.137000
@<TRIPOS>BOND
     1     1     2 ar
     2     1     6 ar
     3     1    27 1
     4     2     3 ar
     5     2     7 ar
     6     3     4 ar
     7     3    10 ar
     8     4     5 ar
     9     5     6 ar
    10     5    28 1
    11     6    29 1
    12     7     8 ar
    13     7    30 1
    14     8     9 ar
    15     8    17 1
    16     9    10 ar
    17     9    31 1
    18    10    11 1
    19    11    12 ar
    20    11    16 ar
    21    12    13 ar
    22    12    32 1
    23    13    14 ar
    24    13    24 1
    25    14    15 ar
    26    14    33 1
    27    15    16 ar
    28    15    34 1
    29    16    35 1
    30    17    18 1
    31    17    36 1
    32    17    37 1
    33    18    19 ar
    34    18    23 ar
    35    19    20 ar
    36    19    38 1
    37    20    21 ar
    38    20    39 1
    39    21    22 ar
    40    22    23 ar
    41    22    40 1
    42    23    41 1
    43    24    25 1
    44    24    26 1
@<TRIPOS>SUBSTRUCTURE
     1 988         1 TEMP              0 ****  ****    0 ROOT
