@<TRIPOS>MOLECULE
98B
   21    21     1     0     0
SMALL
bcc


@<TRIPOS>ATOM
      1 N            0.0000     0.0000     0.0000 nz         1 98B       0.056400
      2 C            1.4690     0.0000     0.0000 c3         1 98B       0.012800
      3 C7           1.9780     0.0000     1.4420 c3         1 98B      -0.003100
      4 C1           1.9710    -1.2310    -0.7100 ca         1 98B      -0.190300
      5 C2           1.3330    -2.4430    -0.5280 ca         1 98B      -0.085500
      6 C3           1.7940    -3.5720    -1.1790 ca         1 98B      -0.065500
      7 C4           2.8910    -3.4880    -2.0150 ca         1 98B      -0.048000
      8 C5           3.5290    -2.2750    -2.1990 ca         1 98B      -0.065500
      9 C6           3.0650    -1.1450    -1.5500 ca         1 98B      -0.085500
     10 H1          -0.3340     0.8970     0.2930 hn         1 98B       0.229467
     11 H2          -0.3340    -0.1950    -0.9230 hn         1 98B       0.229467
     12 H4           1.8300     0.8840    -0.5110 hx         1 98B       0.087700
     13 H5           2.5180     0.9190     1.6350 hc         1 98B       0.038367
     14 H6           2.6390    -0.8450     1.5920 hc         1 98B       0.038367
     15 H7           1.1380    -0.0740     2.1220 hc         1 98B       0.038367
     16 H8           0.4730    -2.5100     0.1270 ha         1 98B       0.103000
     17 H9           1.2940    -4.5220    -1.0350 ha         1 98B       0.125500
     18 H10          3.2530    -4.3720    -2.5250 ha         1 98B       0.126000
     19 H11          4.3880    -2.2090    -2.8560 ha         1 98B       0.125500
     20 H12          3.5650    -0.1950    -1.6940 ha         1 98B       0.103000
     21 HN3         -0.3340    -0.7490     0.5740 hn         1 98B       0.229467
@<TRIPOS>BOND
     1     1     2 1   
     2     1    10 1   
     3     1    11 1   
     4     1    21 1   
     5     2     3 1   
     6     2     4 1   
     7     2    12 1   
     8     3    13 1   
     9     3    14 1   
    10     3    15 1   
    11     4     5 ar  
    12     4     9 ar  
    13     5     6 ar  
    14     5    16 1   
    15     6     7 ar  
    16     6    17 1   
    17     7     8 ar  
    18     7    18 1   
    19     8     9 ar  
    20     8    19 1   
    21     9    20 1   
@<TRIPOS>SUBSTRUCTURE
     1 98B         1 TEMP              0 ****  ****    0 ROOT
