@<TRIPOS>MOLECULE
molecule
   21    21     1     0     0
SMALL
bcc


@<TRIPOS>ATOM
      1 N            0.0000     0.0000     0.0000 nz         1 98B      -0.811600
      2 C            1.4690     0.0000     0.0000 c3         1 98B       0.167800
      3 C7           1.9780     0.0000     1.4420 c3         1 98B      -0.115100
      4 C1           1.9710    -1.2310    -0.7100 ca         1 98B      -0.174300
      5 C2           1.3330    -2.4430    -0.5280 ca         1 98B      -0.116000
      6 C3           1.7940    -3.5720    -1.1790 ca         1 98B      -0.100000
      7 C4           2.8910    -3.4880    -2.0150 ca         1 98B      -0.084000
      8 C5           3.5290    -2.2750    -2.1990 ca         1 98B      -0.100000
      9 C6           3.0650    -1.1450    -1.5500 ca         1 98B      -0.116000
     10 H1          -0.3340     0.8970     0.2930 hn         1 98B       0.455467
     11 H2          -0.3340    -0.1950    -0.9230 hn         1 98B       0.455467
     12 H4           1.8300     0.8840    -0.5110 hx         1 98B       0.114700
     13 H5           2.5180     0.9190     1.6350 hc         1 98B       0.077033
     14 H6           2.6390    -0.8450     1.5920 hc         1 98B       0.077033
     15 H7           1.1380    -0.0740     2.1220 hc         1 98B       0.077033
     16 H8           0.4730    -2.5100     0.1270 ha         1 98B       0.128000
     17 H9           1.2940    -4.5220    -1.0350 ha         1 98B       0.159500
     18 H10          3.2530    -4.3720    -2.5250 ha         1 98B       0.161000
     19 H11          4.3880    -2.2090    -2.8560 ha         1 98B       0.159500
     20 H12          3.5650    -0.1950    -1.6940 ha         1 98B       0.128000
     21 HN3         -0.3340    -0.7490     0.5740 hn         1 98B       0.455467
@<TRIPOS>BOND
     1     1     2 1
     2     2     3 1
     3     2     4 1
     4     5     4 ar
     5     5     6 ar
     6     4     9 ar
     7     6     7 ar
     8     9     8 ar
     9     7     8 ar
    10     1    10 1
    11     1    11 1
    12     2    12 1
    13     3    13 1
    14     3    14 1
    15     3    15 1
    16     5    16 1
    17     6    17 1
    18     7    18 1
    19     8    19 1
    20     9    20 1
    21    21     1 1
@<TRIPOS>SUBSTRUCTURE
     1 98B         1 TEMP              0 ****  ****    0 ROOT
