@<TRIPOS>MOLECULE
molecule
   66    70     1     0     0
SMALL
bcc


@<TRIPOS>ATOM
      1 N12          0.0000     0.0000     0.0000 nb         1 98D      -0.816000
      2 C13          1.3220     0.0000     0.0000 ca         1 98D       0.590200
      3 C15          1.2300    -0.0010     2.4120 ca         1 98D       0.625800
      4 C17          1.7650    -0.0010     4.8120 ca         1 98D       0.553800
      5 C20          3.5330    -0.0030     8.0400 c3         1 98D       0.099800
      6 C21          4.4670    -1.1850     7.7710 c3         1 98D      -0.102100
      7 C24          0.0850    -0.0020     6.5140 ca         1 98D      -0.069000
      8 C28          5.1240    -1.4160     3.9780 c2         1 98D      -0.196200
      9 N02         -5.7510     0.5050    -6.2670 n3         1 98D      -0.734600
     10 C03         -6.6310     0.0940    -5.1640 c3         1 98D       0.161300
     11 C04         -5.9100     0.3100    -3.8320 c3         1 98D       0.165300
     12 N05         -4.6610    -0.4630    -3.8220 nh         1 98D      -0.599000
     13 C06         -4.0090    -0.3470    -2.5890 ca         1 98D       0.093600
     14 C07         -2.8040    -1.0060    -2.3760 ca         1 98D      -0.151500
     15 C08         -2.1620    -0.8900    -1.1600 ca         1 98D      -0.115000
     16 C09         -2.7180    -0.1170    -0.1500 ca         1 98D       0.124600
     17 C11         -0.6850    -0.0010     1.1370 ca         1 98D       0.989900
     18 C14          1.9900     0.0000     1.2220 ca         1 98D      -0.524200
     19 N16          2.1180    -0.0010     3.4650 na         1 98D      -0.191300
     20 N18          2.7110    -0.0020     5.7380 nb         1 98D      -0.747000
     21 C19          2.4190    -0.0030     7.0250 ca         1 98D       0.447600
     22 O22          2.9820    -0.1210     9.3520 oh         1 98D      -0.605800
     23 C23          1.1070    -0.0030     7.4540 ca         1 98D      -0.252300
     24 C25          0.4210     0.0040     5.1730 ca         1 98D      -0.272300
     25 N26          3.4270     0.0000     2.9750 n          1 98D      -0.357100
     26 C27          4.6390    -0.0000     3.7980 c3         1 98D       0.159200
     27 C29          6.3530    -1.7330     3.6510 c2         1 98D      -0.200000
     28 C30          3.4020    -0.0000     1.6250 c          1 98D       0.735100
     29 O31          4.3660     0.0000     0.8840 o          1 98D      -0.617500
     30 N32         -0.0910    -0.0010     2.3230 nb         1 98D      -0.852000
     31 C33         -3.9210     0.5430    -0.3640 ca         1 98D      -0.115000
     32 C34         -4.5630     0.4320    -1.5820 ca         1 98D      -0.151500
     33 C35         -3.7810    -0.0520    -4.9250 c3         1 98D       0.165300
     34 C36         -4.5010    -0.2680    -6.2580 c3         1 98D       0.161300
     35 H131         1.8750     0.0010    -0.9320 h4         1 98D       0.048100
     36 H201         4.0910     0.9220     7.9640 h1         1 98D       0.048700
     37 H213         4.9310    -1.4970     8.6990 hc         1 98D       0.048033
     38 H212         5.2340    -0.8860     7.0670 hc         1 98D       0.048033
     39 H211         3.8970    -2.0080     7.3570 hc         1 98D       0.048033
     40 H241        -0.9530     0.0000     6.8240 ha         1 98D       0.145000
     41 H281         4.4580    -2.1700     4.3770 ha         1 98D       0.133000
     42 H012        -7.3340     0.9890    -7.5530 h1         1 98D       0.033033
     43 H013        -5.7770     0.7260    -8.3510 h1         1 98D       0.033033
     44 H011        -6.6990    -0.6520    -7.7340 h1         1 98D       0.033033
     45 H032        -6.8780    -0.9560    -5.2740 h1         1 98D       0.042450
     46 H041        -6.5460    -0.0220    -3.0200 h1         1 98D       0.049450
     47 H042        -5.6830     1.3630    -3.7120 h1         1 98D       0.049450
     48 H071        -2.3700    -1.6100    -3.1640 ha         1 98D       0.140500
     49 H081        -1.2230    -1.4040    -0.9930 ha         1 98D       0.144500
     50 H221         3.4230     0.4770     9.9330 ho         1 98D       0.409000
     51 H231         0.8770    -0.0070     8.5130 ha         1 98D       0.163000
     52 H251        -0.3510     0.0050     4.4130 ha         1 98D       0.184000
     53 H271         4.4170     0.4310     4.7670 h1         1 98D       0.089200
     54 H272         5.4080     0.5860     3.3100 h1         1 98D       0.089200
     55 H291         6.7020    -2.7510     3.7800 ha         1 98D       0.116000
     56 H292         7.0200    -0.9790     3.2520 ha         1 98D       0.116000
     57 H331        -4.3540     1.1480     0.4230 ha         1 98D       0.144500
     58 H341        -5.5010     0.9470    -1.7490 ha         1 98D       0.140500
     59 H351        -3.5330     0.9970    -4.8150 h1         1 98D       0.049450
     60 H352        -2.8760    -0.6460    -4.9040 h1         1 98D       0.049450
     61 H361        -3.8660     0.0660    -7.0690 h1         1 98D       0.042450
     62 H362        -4.7280    -1.3200    -6.3790 h1         1 98D       0.042450
     63 N10         -2.0640    -0.0000     1.0840 nu         1 98D      -0.742300
     64 H031        -7.5360     0.6880    -5.1850 h1         1 98D       0.042450
     65 C01         -6.4350     0.3840    -7.5610 c3         1 98D       0.153100
     66 H101        -2.5980     0.0590     1.9290 hn         1 98D       0.465800
@<TRIPOS>BOND
     1    65     9 1
     2     9    10 1
     3     9    34 1
     4    10    11 1
     5    34    33 1
     6    23     7 ar
     7    23    21 ar
     8     6     5 1
     9    11    12 1
    10     5    21 1
    11     5    22 1
    12     7    24 ar
    13    21    20 ar
    14    33    12 1
    15    12    13 1
    16    24     4 ar
    17    20     4 ar
    18    13    14 ar
    19    13    32 ar
    20    14    15 ar
    21     4    19 1
    22     8    26 1
    23     8    27 2
    24    32    31 ar
    25    15    16 ar
    26    19    25 1
    27    19     3 1
    28    26    25 1
    29    25    28 1
    30    31    16 ar
    31    16    63 1
    32    30     3 ar
    33    30    17 ar
    34     3    18 ar
    35    63    17 1
    36    28    18 1
    37    28    29 2
    38    17     1 ar
    39    18     2 ar
    40     1     2 ar
    41     2    35 1
    42     5    36 1
    43     6    37 1
    44     6    38 1
    45     6    39 1
    46     7    40 1
    47     8    41 1
    48    65    42 1
    49    65    43 1
    50    65    44 1
    51    10    64 1
    52    10    45 1
    53    11    46 1
    54    11    47 1
    55    14    48 1
    56    15    49 1
    57    63    66 1
    58    22    50 1
    59    23    51 1
    60    24    52 1
    61    26    53 1
    62    26    54 1
    63    27    55 1
    64    27    56 1
    65    31    57 1
    66    32    58 1
    67    33    59 1
    68    33    60 1
    69    34    61 1
    70    34    62 1
@<TRIPOS>SUBSTRUCTURE
     1 98D         1 TEMP              0 ****  ****    0 ROOT
