@<TRIPOS>MOLECULE
98D
   66    70     1     0     0
SMALL
bcc


@<TRIPOS>ATOM
      1 N12          0.0000     0.0000     0.0000 nb         1 98D      -0.732000
      2 C13          1.3220     0.0000     0.0000 ca         1 98D       0.606200
      3 C15          1.2300    -0.0010     2.4120 ca         1 98D       0.421800
      4 C17          1.7650    -0.0010     4.8120 ca         1 98D       0.346800
      5 C20          3.5330    -0.0030     8.0400 c3         1 98D       0.146800
      6 C21          4.4670    -1.1850     7.7710 c3         1 98D      -0.018100
      7 C24          0.0850    -0.0020     6.5140 ca         1 98D      -0.035000
      8 C28          5.1240    -1.4160     3.9780 c2         1 98D      -0.187200
      9 N02         -5.7510     0.5050    -6.2670 n3         1 98D      -0.549600
     10 C03         -6.6310     0.0940    -5.1640 c3         1 98D       0.153800
     11 C04         -5.9100     0.3100    -3.8320 c3         1 98D       0.135800
     12 N05         -4.6610    -0.4630    -3.8220 nh         1 98D      -0.364000
     13 C06         -4.0090    -0.3470    -2.5890 ca         1 98D       0.015600
     14 C07         -2.8040    -1.0060    -2.3760 ca         1 98D      -0.131000
     15 C08         -2.1620    -0.8900    -1.1600 ca         1 98D      -0.085500
     16 C09         -2.7180    -0.1170    -0.1500 ca         1 98D      -0.039400
     17 C11         -0.6850    -0.0010     1.1370 ca         1 98D       0.745900
     18 C14          1.9900     0.0000     1.2220 ca         1 98D      -0.554200
     19 N16          2.1180    -0.0010     3.4650 na         1 98D       0.146700
     20 N18          2.7110    -0.0020     5.7380 nb         1 98D      -0.616000
     21 C19          2.4190    -0.0030     7.0250 ca         1 98D       0.385600
     22 O22          2.9820    -0.1210     9.3520 oh         1 98D      -0.586800
     23 C23          1.1070    -0.0030     7.4540 ca         1 98D      -0.221300
     24 C25          0.4210     0.0040     5.1730 ca         1 98D      -0.258300
     25 N26          3.4270     0.0000     2.9750 n          1 98D      -0.152100
     26 C27          4.6390    -0.0000     3.7980 c3         1 98D       0.095200
     27 C29          6.3530    -1.7330     3.6510 c2         1 98D      -0.132000
     28 C30          3.4020    -0.0000     1.6250 c          1 98D       0.680100
     29 O31          4.3660     0.0000     0.8840 o          1 98D      -0.658500
     30 N32         -0.0910    -0.0010     2.3230 nb         1 98D      -0.730000
     31 C33         -3.9210     0.5430    -0.3640 ca         1 98D      -0.085500
     32 C34         -4.5630     0.4320    -1.5820 ca         1 98D      -0.131000
     33 C35         -3.7810    -0.0520    -4.9250 c3         1 98D       0.135800
     34 C36         -4.5010    -0.2680    -6.2580 c3         1 98D       0.153800
     35 H131         1.8750     0.0010    -0.9320 h4         1 98D      -0.007900
     36 H201         4.0910     0.9220     7.9640 h1         1 98D       0.008700
     37 H213         3.8970    -2.0090     7.3590 hc         1 98D       0.015033
     38 H212         5.2330    -0.8870     7.0650 hc         1 98D       0.015033
     39 H211         4.9320    -1.4960     8.6990 hc         1 98D       0.015033
     40 H241        -0.9530     0.0000     6.8240 ha         1 98D       0.111000
     41 H281         4.4580    -2.1700     4.3770 ha         1 98D       0.108000
     42 H012        -5.7770     0.7260    -8.3510 h1         1 98D       0.000367
     43 H013        -7.3340     0.9890    -7.5530 h1         1 98D       0.000367
     44 H011        -6.6990    -0.6520    -7.7340 h1         1 98D       0.000367
     45 H032        -7.5360     0.6880    -5.1850 h1         1 98D       0.014950
     46 H041        -6.5460    -0.0220    -3.0200 h1         1 98D       0.024450
     47 H042        -5.6830     1.3630    -3.7120 h1         1 98D       0.024450
     48 H071        -2.3700    -1.6100    -3.1640 ha         1 98D       0.120000
     49 H081        -1.2230    -1.4040    -0.9930 ha         1 98D       0.119000
     50 H221         3.4230     0.4770     9.9330 ho         1 98D       0.394000
     51 H231         0.8770    -0.0070     8.5130 ha         1 98D       0.138000
     52 H251        -0.3510     0.0050     4.4130 ha         1 98D       0.163000
     53 H271         4.4170     0.4310     4.7670 h1         1 98D       0.057200
     54 H272         5.4080     0.5860     3.3100 h1         1 98D       0.057200
     55 H291         7.0200    -0.9790     3.2520 ha         1 98D       0.086000
     56 H292         6.7020    -2.7510     3.7800 ha         1 98D       0.086000
     57 H331        -4.3540     1.1480     0.4230 ha         1 98D       0.119000
     58 H341        -5.5010     0.9470    -1.7490 ha         1 98D       0.120000
     59 H351        -3.5330     0.9970    -4.8150 h1         1 98D       0.024450
     60 H352        -2.8760    -0.6460    -4.9040 h1         1 98D       0.024450
     61 H361        -3.8660     0.0660    -7.0690 h1         1 98D       0.014950
     62 H362        -4.7280    -1.3200    -6.3790 h1         1 98D       0.014950
     63 N10         -2.0640    -0.0000     1.0840 nu         1 98D      -0.265300
     64 H031        -6.8780    -0.9560    -5.2740 h1         1 98D       0.014950
     65 C01         -6.4350     0.3840    -7.5610 c3         1 98D       0.189100
     66 H101        -2.5980     0.0590     1.9290 hn         1 98D       0.289800
@<TRIPOS>BOND
     1     1     2 ar  
     2     1    17 ar  
     3     2    18 ar  
     4     2    35 1   
     5     3    18 ar  
     6     3    19 1   
     7     3    30 ar  
     8     4    19 1   
     9     4    20 ar  
    10     4    24 ar  
    11     5     6 1   
    12     5    21 1   
    13     5    22 1   
    14     5    36 1   
    15     6    37 1   
    16     6    38 1   
    17     6    39 1   
    18     7    23 ar  
    19     7    24 ar  
    20     7    40 1   
    21     8    26 1   
    22     8    27 2   
    23     8    41 1   
    24     9    10 1   
    25     9    34 1   
    26     9    65 1   
    27    10    11 1   
    28    10    45 1   
    29    10    64 1   
    30    11    12 1   
    31    11    46 1   
    32    11    47 1   
    33    12    13 1   
    34    12    33 1   
    35    13    14 ar  
    36    13    32 ar  
    37    14    15 ar  
    38    14    48 1   
    39    15    16 ar  
    40    15    49 1   
    41    16    31 ar  
    42    16    63 1   
    43    17    30 ar  
    44    17    63 1   
    45    18    28 1   
    46    19    25 1   
    47    20    21 ar  
    48    21    23 ar  
    49    22    50 1   
    50    23    51 1   
    51    24    52 1   
    52    25    26 1   
    53    25    28 1   
    54    26    53 1   
    55    26    54 1   
    56    27    55 1   
    57    27    56 1   
    58    28    29 2   
    59    31    32 ar  
    60    31    57 1   
    61    32    58 1   
    62    33    34 1   
    63    33    59 1   
    64    33    60 1   
    65    34    61 1   
    66    34    62 1   
    67    42    65 1   
    68    43    65 1   
    69    44    65 1   
    70    63    66 1   
@<TRIPOS>SUBSTRUCTURE
     1 98D         1 TEMP              0 ****  ****    0 ROOT
