@<TRIPOS>MOLECULE
molecule
   65    68     1     0     0
SMALL
bcc


@<TRIPOS>ATOM
      1 C2           0.0000     0.0000     0.0000 c3         1 98E       0.140800
      2 C3           1.5330     0.0000     0.0000 c3         1 98E       0.110000
      3 C11          5.5830    -1.3600     4.3480 c3         1 98E      -0.084900
      4 C12          2.9070    -0.9020     1.8200 c          1 98E       0.670100
      5 C14          1.9530     2.3970     1.9110 c3         1 98E      -0.109100
      6 C15         -2.4760     3.4970    -2.2930 ca         1 98E       0.059600
      7 C16         -2.9530     2.5910    -3.2320 ca         1 98E      -0.128000
      8 C17         -3.1000     1.2590    -2.8910 ca         1 98E       0.039400
      9 C18         -2.7740     0.8290    -1.6160 ca         1 98E      -0.135000
     10 C19         -2.2980     1.7300    -0.6810 ca         1 98E      -0.060300
     11 C20         -2.1490     3.0610    -1.0160 ca         1 98E      -0.093300
     12 C21         -1.6300     4.0420     0.0060 c3         1 98E      -0.041800
     13 C25         -1.3030     9.1540    -4.8920 ca         1 98E       0.712300
     14 C27         -1.5750     6.9810    -5.5900 ca         1 98E       0.505700
     15 C28         -1.8120     6.5990    -4.2640 ca         1 98E      -0.417200
     16 C29         -1.7760     7.5900    -3.2760 ca         1 98E       0.505700
     17 N1          -0.4870     1.1180     0.8190 n3         1 98E      -0.728600
     18 N4           2.0000     0.0000     1.3950 n          1 98E      -0.491800
     19 C5           1.4510     1.0090     2.3130 c3         1 98E       0.111700
     20 C6          -0.0790     0.9690     2.2210 c3         1 98E       0.150800
     21 C7           4.4620    -1.9560     3.4790 c3         1 98E      -0.074900
     22 C8           3.4500    -0.8200     3.2230 c3         1 98E      -0.150700
     23 C9           4.2790     0.4760     3.4080 c3         1 98E      -0.074900
     24 C10          5.2150     0.1180     4.5910 c3         1 98E      -0.084900
     25 O13          3.2860    -1.7790     1.0730 o          1 98E      -0.611100
     26 N24         -2.3190     4.8430    -2.6360 ns         1 98E      -0.467100
     27 N26         -1.3290     8.2520    -5.8540 nb         1 98E      -0.741500
     28 N30         -1.5220     8.8370    -3.6310 nb         1 98E      -0.741500
     29 C32         -2.0930     5.1900    -3.9190 c          1 98E       0.685700
     30 O33         -2.1210     4.3440    -4.7910 o          1 98E      -0.588100
     31 H1          -0.3600     0.1130    -1.0150 h1         1 98E       0.048700
     32 H2          -0.3600    -0.9340     0.4150 h1         1 98E       0.048700
     33 H3           1.8960    -0.8870    -0.5040 h1         1 98E       0.069700
     34 H4           1.8960     0.8870    -0.5050 h1         1 98E       0.069700
     35 H5           6.5290    -1.4240     3.8250 hc         1 98E       0.044200
     36 H6           5.6380    -1.8870     5.2920 hc         1 98E       0.044200
     37 H7           2.9730     2.3220     1.5520 hc         1 98E       0.047033
     38 H8           1.3230     2.7960     1.1250 hc         1 98E       0.047033
     39 H9           1.9210     3.0560     2.7700 hc         1 98E       0.047033
     40 H10         -3.2080     2.9270    -4.2290 ha         1 98E       0.192000
     41 H11         -2.8910    -0.2150    -1.3510 ha         1 98E       0.144000
     42 H12         -0.5790     4.2320    -0.1770 hc         1 98E       0.043700
     43 H13         -2.1840     4.9700    -0.0710 hc         1 98E       0.043700
     44 H14         -1.7550     3.6280     0.9990 hc         1 98E       0.043700
     45 H17         -1.5940     6.2470    -6.3860 h4         1 98E       0.040600
     46 H18         -1.9540     7.3380    -2.2380 h4         1 98E       0.040600
     47 H20          1.7600     0.7840     3.3260 h1         1 98E       0.066700
     48 H21         -0.4960     1.7800     2.8060 h1         1 98E       0.040200
     49 H22         -0.4380     0.0210     2.6020 h1         1 98E       0.040200
     50 H23          3.9780    -2.7700     4.0060 hc         1 98E       0.056450
     51 H24          4.8700    -2.3060     2.5380 hc         1 98E       0.056450
     52 H25          2.6470    -0.8600     3.9500 hc         1 98E       0.064700
     53 H26          3.6360     1.3080     3.6680 hc         1 98E       0.056450
     54 H27          4.8560     0.6910     2.5170 hc         1 98E       0.056450
     55 H28          4.6900     0.2270     5.5330 hc         1 98E       0.044200
     56 H29          6.1030     0.7370     4.5700 hc         1 98E       0.044200
     57 H30         -2.4210     5.5520    -1.9370 hn         1 98E       0.327500
     58 H31         -0.3890    10.6250    -6.1300 hc         1 98E       0.065367
     59 H32         -0.4950    11.0650    -4.4200 hc         1 98E       0.065367
     60 H33         -1.9420    11.1100    -5.4360 hc         1 98E       0.065367
     61 C23         -1.9450     1.2580     0.7060 c3         1 98E       0.209100
     62 Cl          -3.6960     0.1250    -4.0620 cl         1 98E      -0.101400
     63 C31         -1.0120    10.5890    -5.2440 c3         1 98E      -0.128400
     64 H15         -2.2960     1.9800     1.4340 h1         1 98E       0.044200
     65 H16         -2.4150     0.3000     0.8920 h1         1 98E       0.044200
@<TRIPOS>BOND
     1    28    16 ar
     2    28    13 ar
     3    63    13 1
     4    16    15 ar
     5    13    27 ar
     6    30    29 2
     7    15    29 1
     8    15    14 ar
     9    27    14 ar
    10    29    26 1
    11    26     6 1
    12     7     6 ar
    13     7     8 ar
    14    62     8 1
    15     6    11 ar
    16     5    19 1
    17     8     9 ar
    18    19    20 1
    19    19    18 1
    20    11    12 1
    21    11    10 ar
    22    25     4 2
    23    20    17 1
    24     9    10 ar
    25    10    61 1
    26     4    18 1
    27     4    22 1
    28    18     2 1
    29    17    61 1
    30    17     1 1
    31    21    22 1
    32    21     3 1
    33    22    23 1
    34     2     1 1
    35    24     3 1
    36    24    23 1
    37     1    31 1
    38     1    32 1
    39     2    33 1
    40     2    34 1
    41     3    35 1
    42     3    36 1
    43     5    37 1
    44     5    38 1
    45     5    39 1
    46     7    40 1
    47     9    41 1
    48    12    42 1
    49    12    43 1
    50    12    44 1
    51    61    64 1
    52    61    65 1
    53    14    45 1
    54    16    46 1
    55    19    47 1
    56    20    48 1
    57    20    49 1
    58    21    50 1
    59    21    51 1
    60    22    52 1
    61    23    53 1
    62    23    54 1
    63    24    55 1
    64    24    56 1
    65    26    57 1
    66    63    58 1
    67    63    59 1
    68    63    60 1
@<TRIPOS>SUBSTRUCTURE
     1 98E         1 TEMP              0 ****  ****    0 ROOT
