@<TRIPOS>MOLECULE
molecule
   66    70     1     0     0
SMALL
bcc


@<TRIPOS>ATOM
      1 N12          0.0000     0.0000     0.0000 nb         1 98G      -0.816000
      2 C13          1.3230     0.0000     0.0000 ca         1 98G       0.589200
      3 C15          1.2310    -0.0000     2.4120 ca         1 98G       0.623800
      4 C17          1.7660     0.0000     4.8110 ca         1 98G       0.555800
      5 C20          3.5360     0.0010     8.0380 c3         1 98G       0.102800
      6 C21          4.4700    -1.1820     7.7700 c3         1 98G      -0.101100
      7 C24          0.0870     0.0010     6.5140 ca         1 98G      -0.064000
      8 C28          5.1250    -1.4140     3.9770 c2         1 98G      -0.194200
      9 N02         -4.9210    -0.1750    -6.6410 n3         1 98G      -0.733600
     10 C03         -4.6910    -1.4960    -6.0410 c3         1 98G       0.160300
     11 C04         -3.9070    -1.3300    -4.7370 c3         1 98G       0.164300
     12 N05         -4.6610    -0.4640    -3.8210 nh         1 98G      -0.599000
     13 C06         -4.0090    -0.3480    -2.5880 ca         1 98G       0.092600
     14 C07         -2.8060    -1.0070    -2.3750 ca         1 98G      -0.151000
     15 C08         -2.1610    -0.8910    -1.1590 ca         1 98G      -0.115500
     16 C09         -2.7170    -0.1160    -0.1500 ca         1 98G       0.124600
     17 C11         -0.6850     0.0010     1.1370 ca         1 98G       0.988900
     18 C14          1.9910     0.0000     1.2210 ca         1 98G      -0.521200
     19 N16          2.1180     0.0010     3.4650 na         1 98G      -0.190300
     20 N18          2.7120     0.0000     5.7370 nb         1 98G      -0.721000
     21 C19          2.4210     0.0010     7.0240 ca         1 98G       0.449600
     22 O22          4.2720     1.2210     7.9380 oh         1 98G      -0.589800
     23 C23          1.1090     0.0010     7.4530 ca         1 98G      -0.275300
     24 C25          0.4230     0.0070     5.1730 ca         1 98G      -0.272300
     25 N26          3.4280     0.0010     2.9740 n          1 98G      -0.355100
     26 C27          4.6400     0.0010     3.7970 c3         1 98G       0.155200
     27 C29          6.3530    -1.7330     3.6500 c2         1 98G      -0.201000
     28 C30          3.4030     0.0000     1.6250 c          1 98G       0.734100
     29 O31          4.3670    -0.0010     0.8830 o          1 98G      -0.616500
     30 N32         -0.0910     0.0010     2.3230 nb         1 98G      -0.853000
     31 C33         -3.9210     0.5430    -0.3630 ca         1 98G      -0.115500
     32 C34         -4.5630     0.4320    -1.5810 ca         1 98G      -0.151000
     33 C35         -4.8920     0.8580    -4.4220 c3         1 98G       0.164300
     34 C36         -5.6760     0.6930    -5.7260 c3         1 98G       0.160300
     35 H131         1.8750    -0.0010    -0.9320 h4         1 98G       0.048100
     36 H201         3.1180    -0.0880     9.0330 h1         1 98G       0.038700
     37 H212         4.9060    -1.5160     8.7040 hc         1 98G       0.049033
     38 H213         5.2580    -0.8740     7.0940 hc         1 98G       0.049033
     39 H211         3.9060    -1.9930     7.3240 hc         1 98G       0.049033
     40 H241        -0.9510     0.0040     6.8250 ha         1 98G       0.145000
     41 H281         4.4580    -2.1690     4.3770 ha         1 98G       0.129000
     42 H012        -5.7320     0.6870    -8.3720 h1         1 98G       0.032700
     43 H013        -5.0130    -0.9140    -8.6010 h1         1 98G       0.032700
     44 H011        -6.5770    -0.7540    -7.7890 h1         1 98G       0.032700
     45 H031        -4.1210    -2.1090    -6.7280 h1         1 98G       0.042450
     46 H042        -2.9450    -0.8790    -4.9500 h1         1 98G       0.049950
     47 H041        -3.7630    -2.3010    -4.2780 h1         1 98G       0.049950
     48 H071        -2.3720    -1.6110    -3.1620 ha         1 98G       0.140000
     49 H081        -1.2230    -1.4050    -0.9920 ha         1 98G       0.144500
     50 H221         4.2900     1.6470     8.7790 ho         1 98G       0.402000
     51 H231         0.8800    -0.0040     8.5120 ha         1 98G       0.139000
     52 H251        -0.3500     0.0070     4.4130 ha         1 98G       0.185000
     53 H272         4.4190     0.4330     4.7660 h1         1 98G       0.096200
     54 H271         5.4090     0.5870     3.3080 h1         1 98G       0.096200
     55 H292         6.7020    -2.7510     3.7800 ha         1 98G       0.115500
     56 H291         7.0200    -0.9790     3.2500 ha         1 98G       0.115500
     57 H331        -4.3530     1.1490     0.4240 ha         1 98G       0.144500
     58 H341        -5.5010     0.9460    -1.7480 ha         1 98G       0.140000
     59 H352        -5.4620     1.4710    -3.7340 h1         1 98G       0.049950
     60 H351        -3.9400     1.3300    -4.6320 h1         1 98G       0.049950
     61 H361        -6.6380     0.2420    -5.5130 h1         1 98G       0.042450
     62 H362        -5.8190     1.6630    -6.1850 h1         1 98G       0.042450
     63 N10         -2.0650     0.0000     1.0840 nu         1 98G      -0.743300
     64 H032        -5.6430    -1.9670    -5.8310 h1         1 98G       0.042450
     65 C01         -5.6060    -0.2970    -7.9360 c3         1 98G       0.153100
     66 H101        -2.5980     0.0570     1.9290 hn         1 98G       0.465800
@<TRIPOS>BOND
     1    65     9 1
     2     9    34 1
     3     9    10 1
     4    34    33 1
     5     6     5 1
     6    33    12 1
     7    22     5 1
     8    10    11 1
     9    23     7 ar
    10    23    21 ar
    11     7    24 ar
    12     5    21 1
    13    11    12 1
    14    21    20 ar
    15    12    13 1
    16    24     4 ar
    17    20     4 ar
    18    13    32 ar
    19    13    14 ar
    20    32    31 ar
    21     4    19 1
    22     8    26 1
    23     8    27 2
    24    14    15 ar
    25    31    16 ar
    26    19    25 1
    27    19     3 1
    28    26    25 1
    29    25    28 1
    30    16    15 ar
    31    16    63 1
    32    30     3 ar
    33    30    17 ar
    34     3    18 ar
    35    63    17 1
    36    17     1 ar
    37    28    18 1
    38    28    29 2
    39    18     2 ar
    40     1     2 ar
    41     2    35 1
    42     5    36 1
    43     6    37 1
    44     6    38 1
    45     6    39 1
    46     7    40 1
    47     8    41 1
    48    65    42 1
    49    65    43 1
    50    65    44 1
    51    10    64 1
    52    10    45 1
    53    11    46 1
    54    11    47 1
    55    14    48 1
    56    15    49 1
    57    63    66 1
    58    22    50 1
    59    23    51 1
    60    24    52 1
    61    26    53 1
    62    26    54 1
    63    27    55 1
    64    27    56 1
    65    31    57 1
    66    32    58 1
    67    33    59 1
    68    33    60 1
    69    34    61 1
    70    34    62 1
@<TRIPOS>SUBSTRUCTURE
     1 98G         1 TEMP              0 ****  ****    0 ROOT
