@<TRIPOS>MOLECULE
98G
   66    70     1     0     0
SMALL
bcc


@<TRIPOS>ATOM
      1 N12          0.0000     0.0000     0.0000 nb         1 98G      -0.732000
      2 C13          1.3230     0.0000     0.0000 ca         1 98G       0.606200
      3 C15          1.2310    -0.0000     2.4120 ca         1 98G       0.418800
      4 C17          1.7660     0.0000     4.8110 ca         1 98G       0.345800
      5 C20          3.5360     0.0010     8.0380 c3         1 98G       0.146800
      6 C21          4.4700    -1.1820     7.7700 c3         1 98G      -0.018100
      7 C24          0.0870     0.0010     6.5140 ca         1 98G      -0.034000
      8 C28          5.1250    -1.4140     3.9770 c2         1 98G      -0.184200
      9 N02         -4.9210    -0.1750    -6.6410 n3         1 98G      -0.548600
     10 C03         -4.6910    -1.4960    -6.0410 c3         1 98G       0.153300
     11 C04         -3.9070    -1.3300    -4.7370 c3         1 98G       0.135800
     12 N05         -4.6610    -0.4640    -3.8210 nh         1 98G      -0.365000
     13 C06         -4.0090    -0.3480    -2.5880 ca         1 98G       0.015600
     14 C07         -2.8060    -1.0070    -2.3750 ca         1 98G      -0.130000
     15 C08         -2.1610    -0.8910    -1.1590 ca         1 98G      -0.086000
     16 C09         -2.7170    -0.1160    -0.1500 ca         1 98G      -0.039400
     17 C11         -0.6850     0.0010     1.1370 ca         1 98G       0.745900
     18 C14          1.9910     0.0000     1.2210 ca         1 98G      -0.551200
     19 N16          2.1180     0.0010     3.4650 na         1 98G       0.149700
     20 N18          2.7120     0.0000     5.7370 nb         1 98G      -0.587000
     21 C19          2.4210     0.0010     7.0240 ca         1 98G       0.384600
     22 O22          4.2720     1.2210     7.9380 oh         1 98G      -0.573800
     23 C23          1.1090     0.0010     7.4530 ca         1 98G      -0.237300
     24 C25          0.4230     0.0070     5.1730 ca         1 98G      -0.256300
     25 N26          3.4280     0.0010     2.9740 n          1 98G      -0.149100
     26 C27          4.6400     0.0010     3.7970 c3         1 98G       0.090200
     27 C29          6.3530    -1.7330     3.6500 c2         1 98G      -0.133000
     28 C30          3.4030     0.0000     1.6250 c          1 98G       0.679100
     29 O31          4.3670    -0.0010     0.8830 o          1 98G      -0.657500
     30 N32         -0.0910     0.0010     2.3230 nb         1 98G      -0.731000
     31 C33         -3.9210     0.5430    -0.3630 ca         1 98G      -0.086000
     32 C34         -4.5630     0.4320    -1.5810 ca         1 98G      -0.130000
     33 C35         -4.8920     0.8580    -4.4220 c3         1 98G       0.135800
     34 C36         -5.6760     0.6930    -5.7260 c3         1 98G       0.153300
     35 H131         1.8750    -0.0010    -0.9320 h4         1 98G      -0.006900
     36 H201         3.1180    -0.0880     9.0330 h1         1 98G       0.000700
     37 H212         3.9070    -1.9920     7.3230 hc         1 98G       0.015033
     38 H213         4.9050    -1.5170     8.7040 hc         1 98G       0.015033
     39 H211         5.2580    -0.8740     7.0950 hc         1 98G       0.015033
     40 H241        -0.9510     0.0040     6.8250 ha         1 98G       0.111000
     41 H281         4.4580    -2.1690     4.3770 ha         1 98G       0.104000
     42 H012        -5.0240    -0.9310    -8.5930 h1         1 98G       0.000367
     43 H013        -6.5860    -0.7340    -7.7860 h1         1 98G       0.000367
     44 H011        -5.7130     0.6840    -8.3820 h1         1 98G       0.000367
     45 H031        -5.6430    -1.9670    -5.8310 h1         1 98G       0.014700
     46 H042        -2.9450    -0.8790    -4.9500 h1         1 98G       0.024950
     47 H041        -3.7630    -2.3010    -4.2780 h1         1 98G       0.024950
     48 H071        -2.3720    -1.6110    -3.1620 ha         1 98G       0.119500
     49 H081        -1.2230    -1.4050    -0.9920 ha         1 98G       0.119000
     50 H221         4.2890     1.6470     8.7790 ho         1 98G       0.387000
     51 H231         0.8800    -0.0040     8.5120 ha         1 98G       0.117000
     52 H251        -0.3500     0.0070     4.4130 ha         1 98G       0.164000
     53 H272         4.4190     0.4330     4.7660 h1         1 98G       0.063700
     54 H271         5.4090     0.5870     3.3080 h1         1 98G       0.063700
     55 H292         7.0200    -0.9790     3.2500 ha         1 98G       0.086000
     56 H291         6.7020    -2.7510     3.7800 ha         1 98G       0.086000
     57 H331        -4.3530     1.1490     0.4240 ha         1 98G       0.119000
     58 H341        -5.5010     0.9460    -1.7480 ha         1 98G       0.119500
     59 H352        -5.4620     1.4710    -3.7340 h1         1 98G       0.024950
     60 H351        -3.9400     1.3300    -4.6320 h1         1 98G       0.024950
     61 H361        -5.8190     1.6630    -6.1850 h1         1 98G       0.014700
     62 H362        -6.6380     0.2420    -5.5130 h1         1 98G       0.014700
     63 N10         -2.0650     0.0000     1.0840 nu         1 98G      -0.266300
     64 H032        -4.1210    -2.1090    -6.7280 h1         1 98G       0.014700
     65 C01         -5.6060    -0.2970    -7.9360 c3         1 98G       0.189100
     66 H101        -2.5980     0.0630     1.9280 hn         1 98G       0.289800
@<TRIPOS>BOND
     1     1     2 ar  
     2     1    17 ar  
     3     2    18 ar  
     4     2    35 1   
     5     3    18 ar  
     6     3    19 1   
     7     3    30 ar  
     8     4    19 1   
     9     4    20 ar  
    10     4    24 ar  
    11     5     6 1   
    12     5    21 1   
    13     5    22 1   
    14     5    36 1   
    15     6    37 1   
    16     6    38 1   
    17     6    39 1   
    18     7    23 ar  
    19     7    24 ar  
    20     7    40 1   
    21     8    26 1   
    22     8    27 2   
    23     8    41 1   
    24     9    10 1   
    25     9    34 1   
    26     9    65 1   
    27    10    11 1   
    28    10    45 1   
    29    10    64 1   
    30    11    12 1   
    31    11    46 1   
    32    11    47 1   
    33    12    13 1   
    34    12    33 1   
    35    13    14 ar  
    36    13    32 ar  
    37    14    15 ar  
    38    14    48 1   
    39    15    16 ar  
    40    15    49 1   
    41    16    31 ar  
    42    16    63 1   
    43    17    30 ar  
    44    17    63 1   
    45    18    28 1   
    46    19    25 1   
    47    20    21 ar  
    48    21    23 ar  
    49    22    50 1   
    50    23    51 1   
    51    24    52 1   
    52    25    26 1   
    53    25    28 1   
    54    26    53 1   
    55    26    54 1   
    56    27    55 1   
    57    27    56 1   
    58    28    29 2   
    59    31    32 ar  
    60    31    57 1   
    61    32    58 1   
    62    33    34 1   
    63    33    59 1   
    64    33    60 1   
    65    34    61 1   
    66    34    62 1   
    67    42    65 1   
    68    43    65 1   
    69    44    65 1   
    70    63    66 1   
@<TRIPOS>SUBSTRUCTURE
     1 98G         1 TEMP              0 ****  ****    0 ROOT
