@<TRIPOS>MOLECULE
molecule
   79    82     1     0     0
SMALL
bcc


@<TRIPOS>ATOM
      1 C3           0.0000     0.0000     0.0000 c3         1 98H       0.186600
      2 O1           1.4290     0.0000     0.0000 oh         1 98H      -0.612800
      3 C41          2.7130    -4.6890    14.9770 c3         1 98H      -0.080100
      4 C45          1.6720    -2.4570    15.2840 c3         1 98H      -0.080100
      5 C49          2.6640    -2.6400    12.6020 c3         1 98H      -0.172400
      6 C52          2.7840    -2.8160    11.1050 c          1 98H       0.569300
      7 C58         -0.8360    -3.5080    10.0350 c3         1 98H      -0.043200
      8 C12          0.5720    -1.3090     4.5100 c3         1 98H      -0.074400
      9 C15          0.0690    -1.4530     5.9480 c3         1 98H      -0.076700
     10 C17          0.8760    -2.5390     6.6650 c3         1 98H      -0.054700
     11 C19          0.4760    -2.5930     8.1410 c3         1 98H      -0.058000
     12 C20          1.7440    -3.1230     8.7940 c3         1 98H      -0.007800
     13 C21          2.8250    -2.2460     8.1380 c3         1 98H      -0.059400
     14 C24          2.3580    -2.1720     6.6770 c3         1 98H      -0.085400
     15 C27          1.5900    -3.0710    10.2920 ce         1 98H      -0.182400
     16 C28          0.4020    -3.2640    10.8570 c2         1 98H      -0.048400
     17 C29          0.2690    -3.2590    12.3710 c3         1 98H      -0.025800
     18 C30          1.5800    -3.6290    13.0360 c3         1 98H      -0.043700
     19 C6          -0.5020     0.0000     1.4210 c2         1 98H      -0.156400
     20 C7           0.3480     0.0020     2.4160 c2         1 98H      -0.146200
     21 C9          -0.1470    -0.1410     3.8320 c3         1 98H      -0.058200
     22 C32          1.5340    -3.7870    14.5430 c3         1 98H      -0.150000
     23 C33          0.2600    -4.4840    14.9570 c          1 98H       0.573100
     24 C34         -1.0510    -4.1680    14.2860 c3         1 98H      -0.178400
     25 C37         -0.8490    -4.2180    12.7720 c3         1 98H      -0.066400
     26 O40          0.2950    -5.3110    15.8470 o          1 98H      -0.523100
     27 O53          3.8800    -2.7440    10.5840 o          1 98H      -0.527100
     28 C54         -0.1590    -1.8410    12.7500 c3         1 98H      -0.091100
     29 C61         -0.6570    -3.5350     8.5220 c3         1 98H      -0.065400
     30 C64          2.0020    -4.5760     8.3840 c3         1 98H      -0.079100
     31 C68          0.1590    -1.1660     8.6190 c3         1 98H      -0.087100
     32 C72         -1.4110    -1.8430     5.9330 c3         1 98H      -0.094100
     33 C76         -1.9840     0.0010     1.6960 c3         1 98H      -0.046900
     34 H1          -0.3610    -0.8840    -0.5110 h1         1 98H       0.026700
     35 H2          -0.3610     0.8850    -0.5110 h1         1 98H       0.026700
     36 H3           1.7430     0.0930    -0.8840 ho         1 98H       0.403000
     37 H4           2.6890    -5.6120    14.4110 hc         1 98H       0.045533
     38 H5           3.6480    -4.1750    14.7920 hc         1 98H       0.045533
     39 H6           2.6270    -4.9120    16.0340 hc         1 98H       0.045533
     40 H7           1.8670    -2.6460    16.3330 hc         1 98H       0.045533
     41 H8           2.4920    -1.8910    14.8610 hc         1 98H       0.045533
     42 H9           0.7530    -1.8900    15.1850 hc         1 98H       0.045533
     43 H10          3.6040    -2.8800    13.0840 hc         1 98H       0.077200
     44 H11          2.3620    -1.6270    12.8370 hc         1 98H       0.077200
     45 H12         -1.5510    -2.7290    10.2710 hc         1 98H       0.051700
     46 H13         -1.2540    -4.4600    10.3380 hc         1 98H       0.051700
     47 H14          1.6390    -1.1200     4.5180 hc         1 98H       0.047200
     48 H15          0.3710    -2.2230     3.9640 hc         1 98H       0.047200
     49 H16          0.1890    -0.5110     6.4690 hc         1 98H       0.061700
     50 H17          0.7280    -3.5050     6.1970 hc         1 98H       0.056700
     51 H18          2.8390    -1.2590     8.5840 hc         1 98H       0.057700
     52 H19          3.7960    -2.7200     8.2050 hc         1 98H       0.057700
     53 H20          2.9180    -2.8780     6.0760 hc         1 98H       0.045700
     54 H21          2.4920    -1.1660     6.2980 hc         1 98H       0.045700
     55 H22          1.8650    -4.5950    12.6360 hc         1 98H       0.060700
     56 H23          1.4130     0.0030     2.2160 ha         1 98H       0.149000
     57 H24          0.0530     0.7730     4.3780 hc         1 98H       0.047700
     58 H25         -1.2140    -0.3290     3.8240 hc         1 98H       0.047700
     59 H26         -1.7940    -4.9000    14.5780 hc         1 98H       0.071700
     60 H27         -1.3770    -3.1760    14.5760 hc         1 98H       0.071700
     61 H28         -1.7680    -3.9270    12.2770 hc         1 98H       0.054200
     62 H29         -0.5800    -5.2260    12.4790 hc         1 98H       0.054200
     63 H30         -1.0980    -1.6050    12.2630 hc         1 98H       0.042367
     64 H31          0.6000    -1.1370    12.4300 hc         1 98H       0.042367
     65 H32         -0.2830    -1.7760    13.8240 hc         1 98H       0.042367
     66 H33         -1.5730    -3.2110     8.0430 hc         1 98H       0.050200
     67 H34         -0.4120    -4.5410     8.2040 hc         1 98H       0.050200
     68 H35          1.4920    -5.2410     9.0700 hc         1 98H       0.039033
     69 H36          3.0660    -4.7750     8.4120 hc         1 98H       0.039033
     70 H37          1.6300    -4.7390     7.3800 hc         1 98H       0.039033
     71 H38          0.5860    -0.4500     7.9270 hc         1 98H       0.038700
     72 H39         -0.9150    -1.0300     8.6620 hc         1 98H       0.038700
     73 H40          0.5820    -1.0130     9.6050 hc         1 98H       0.038700
     74 H41         -1.5070    -2.9010     6.1480 hc         1 98H       0.034700
     75 H42         -1.9420    -1.2720     6.6840 hc         1 98H       0.034700
     76 H43         -1.8300    -1.6340     4.9560 hc         1 98H       0.034700
     77 H44         -2.2790    -0.9650     2.0900 hc         1 98H       0.040033
     78 H45         -2.5220     0.1950     0.7760 hc         1 98H       0.040033
     79 H46         -2.2170     0.7720     2.4200 hc         1 98H       0.040033
@<TRIPOS>BOND
     1     3    22 1
     2     4    22 1
     3    26    23 2
     4    22    23 1
     5    22    18 1
     6    23    24 1
     7    24    25 1
     8    18     5 1
     9    18    17 1
    10     5     6 1
    11    25    17 1
    12    17    28 1
    13    17    16 1
    14    27     6 2
    15     6    15 1
    16    16    15 2
    17    16     7 1
    18    15    12 1
    19     7    29 1
    20    12    30 1
    21    12    13 1
    22    12    11 1
    23    13    14 1
    24    31    11 1
    25    11    29 1
    26    11    10 1
    27    14    10 1
    28    10     9 1
    29     9    32 1
    30     9     8 1
    31     8    21 1
    32    20    21 1
    33    20    19 2
    34     1    19 1
    35     1     2 1
    36    19    33 1
    37     1    34 1
    38     1    35 1
    39     2    36 1
    40     3    37 1
    41     3    38 1
    42     3    39 1
    43     4    40 1
    44     4    41 1
    45     4    42 1
    46     5    43 1
    47     5    44 1
    48     7    45 1
    49     7    46 1
    50     8    47 1
    51     8    48 1
    52     9    49 1
    53    10    50 1
    54    13    51 1
    55    13    52 1
    56    14    53 1
    57    14    54 1
    58    18    55 1
    59    20    56 1
    60    21    57 1
    61    21    58 1
    62    24    59 1
    63    24    60 1
    64    25    61 1
    65    25    62 1
    66    28    63 1
    67    28    64 1
    68    28    65 1
    69    29    66 1
    70    29    67 1
    71    30    68 1
    72    30    69 1
    73    30    70 1
    74    31    71 1
    75    31    72 1
    76    31    73 1
    77    32    74 1
    78    32    75 1
    79    32    76 1
    80    33    77 1
    81    33    78 1
    82    33    79 1
@<TRIPOS>SUBSTRUCTURE
     1 98H         1 TEMP              0 ****  ****    0 ROOT
