@<TRIPOS>MOLECULE
molecule
   16    15     1     0     0
SMALL
bcc


@<TRIPOS>ATOM
      1 C12          0.0000     0.0000     0.0000 c          1 98J       0.888600
      2 O1           1.4140    -0.0010    -2.2310 o          1 98J      -0.480100
      3 O14          1.2080     0.0000     0.0000 o          1 98J      -0.833300
      4 O13         -0.6710     0.0000     1.1620 o          1 98J      -0.833300
      5 C3          -0.7530     0.0050    -1.3060 c3         1 98J      -0.280400
      6 C2           0.2260     0.0030    -2.4510 c          1 98J       0.549100
      7 C9          -0.2760     0.0080    -3.8710 c3         1 98J      -0.194400
      8 C10          0.9140     0.0060    -4.8340 c3         1 98J       0.143400
      9 O11          0.4380     0.0100    -6.1810 oh         1 98J      -0.629800
     10 H31C        -1.3730     0.8920    -1.3620 hc         1 98J       0.050700
     11 H32C        -1.3790    -0.8770    -1.3650 hc         1 98J       0.050700
     12 H91C        -0.8820    -0.8730    -4.0440 hc         1 98J       0.058700
     13 H92C        -0.8740     0.8950    -4.0400 hc         1 98J       0.058700
     14 H101         1.5190     0.8880    -4.6620 h1         1 98J       0.031200
     15 H102         1.5120    -0.8810    -4.6650 h1         1 98J       0.031200
     16 H11          1.1710     0.0080    -6.7730 ho         1 98J       0.390000
@<TRIPOS>BOND
     1     2     6 2
     2     6     5 1
     3     6     7 1
     4     5     1 1
     5     1     4 1
     6     1     3 1
     7     7     8 1
     8     8     9 1
     9     5    10 1
    10     5    11 1
    11     7    12 1
    12     7    13 1
    13     8    14 1
    14     8    15 1
    15     9    16 1
@<TRIPOS>SUBSTRUCTURE
     1 98J         1 TEMP              0 ****  ****    0 ROOT
