@<TRIPOS>MOLECULE
98M
   69    73     1     0     0
SMALL
bcc


@<TRIPOS>ATOM
      1 C10          0.0000     0.0000     0.0000 ca         1 98M       0.378600
      2 C15          1.3820     0.0000     0.0000 ca         1 98M      -0.181300
      3 C17          1.3250    -0.0010     2.3820 ca         1 98M      -0.208300
      4 C20          1.1140    -0.2990     6.5540 ca         1 98M       0.730900
      5 C22          1.9980    -1.5010     8.4450 ca         1 98M       0.002600
      6 C24          2.2530    -2.9440    10.3450 ca         1 98M       0.004400
      7 C26          2.2330    -1.8360    11.1840 ca         1 98M      -0.006400
      8 C28          1.1700    -1.4800    13.2670 c3         1 98M       0.103800
      9 C02         -1.0530     2.6970     4.7460 c          1 98M       0.671100
     10 N03         -0.7240     2.4190     3.4670 n          1 98M      -0.138100
     11 C04         -1.1930     3.1580     2.2920 c3         1 98M       0.136200
     12 C05         -2.4930     2.5650     1.8130 c2         1 98M      -0.216200
     13 C06         -3.5490     3.3270     1.6760 c2         1 98M      -0.124000
     14 N07          0.1360     1.3160     3.4380 na         1 98M      -0.047300
     15 C08         -0.0640    -0.0010     2.3070 ca         1 98M       0.357800
     16 N09         -0.6760    -0.0000     1.1340 nb         1 98M      -0.520000
     17 C11         -0.7440     0.0080    -1.3100 c3         1 98M       0.118500
     18 C12         -2.2460     0.1390    -1.0430 c3         1 98M      -0.033600
     19 O13         -0.3030     1.1120    -2.1030 oh         1 98M      -0.587800
     20 C14         -0.4720    -1.2980    -2.0580 c3         1 98M      -0.033600
     21 C16          2.0610     0.0000     1.2100 ca         1 98M      -0.087000
     22 C18          0.3650     0.8740     4.7210 ca         1 98M       0.448800
     23 N19          1.0830    -0.1100     5.2410 nb         1 98M      -0.678000
     24 C23          2.1350    -2.7760     8.9780 ca         1 98M      -0.133000
     25 Cl25         2.4250    -4.5370    11.0130 cl         1 98M      -0.001400
     26 N27          2.3520    -2.0060    12.5690 nh         1 98M      -0.389000
     27 C29          1.3030    -1.7550    14.7670 c3         1 98M       0.157300
     28 N30          2.5320    -1.1260    15.2700 n3         1 98M      -0.543600
     29 C31          2.4620     0.3370    15.1560 c3         1 98M       0.168100
     30 C32          3.7140    -1.6520    14.5720 c3         1 98M       0.157300
     31 C33          3.5810    -1.3770    13.0720 c3         1 98M       0.103800
     32 C34          2.1060    -0.5620    10.6500 ca         1 98M      -0.106000
     33 C35          1.9830    -0.3950     9.2840 ca         1 98M      -0.097000
     34 N36          0.4410     0.4720     7.3990 nb         1 98M      -0.716000
     35 C37         -0.3020     1.4760     6.9620 ca         1 98M       0.591200
     36 C38         -0.3650     1.7140     5.5920 ca         1 98M      -0.538200
     37 H151         1.9290     0.0010    -0.9350 ha         1 98M       0.127000
     38 H171         1.8420     0.7110     3.0140 ha         1 98M       0.164000
     39 H282         1.1000    -0.4120    13.1010 h1         1 98M       0.021700
     40 H042        -1.3460     4.1970     2.5570 h1         1 98M       0.037700
     41 H041        -0.4530     3.0910     1.5040 h1         1 98M       0.037700
     42 H051        -2.5540     1.5080     1.5810 ha         1 98M       0.132000
     43 H061        -3.4880     4.3840     1.9080 ha         1 98M       0.085500
     44 H062        -4.4840     2.9020     1.3310 ha         1 98M       0.085500
     45 H122        -2.5890    -0.7220    -0.4820 hc         1 98M       0.017367
     46 H121        -2.7770     0.1910    -1.9860 hc         1 98M       0.017367
     47 H123        -2.4340     1.0400    -0.4730 hc         1 98M       0.017367
     48 H131        -0.8300     1.1700    -2.8830 ho         1 98M       0.400000
     49 H142         0.5060    -1.2520    -2.5210 hc         1 98M       0.017367
     50 H141        -1.2270    -1.4410    -2.8220 hc         1 98M       0.017367
     51 H143        -0.5020    -2.1270    -1.3610 hc         1 98M       0.017367
     52 H161         3.1440    -0.0000     1.2360 ha         1 98M       0.113000
     53 H231         2.1510    -3.6390     8.3230 ha         1 98M       0.119000
     54 H292         0.4480    -1.3410    15.2860 h1         1 98M       0.030450
     55 H291         1.3510    -2.8240    14.9340 h1         1 98M       0.030450
     56 H312         1.4980     0.6810    15.5110 h1         1 98M       0.004367
     57 H311         3.2470     0.7840    15.7540 h1         1 98M       0.004367
     58 H313         2.5880     0.6250    14.1190 h1         1 98M       0.004367
     59 H322         3.7840    -2.7210    14.7380 h1         1 98M       0.030450
     60 H321         4.6030    -1.1630    14.9510 h1         1 98M       0.030450
     61 H331         3.5330    -0.3080    12.9050 h1         1 98M       0.021700
     62 H332         4.4360    -1.7920    12.5530 h1         1 98M       0.021700
     63 H341         2.0930     0.3010    11.3040 ha         1 98M       0.114000
     64 H351         1.8850     0.6000     8.8660 ha         1 98M       0.141000
     65 H371        -0.8490     2.1020     7.6580 h4         1 98M      -0.005900
     66 N21          1.8800    -1.3320     7.0590 nu         1 98M      -0.268300
     67 O01         -1.7830     3.5930     5.1260 o          1 98M      -0.647500
     68 H281         0.2810    -1.9690    12.8880 h1         1 98M       0.021700
     69 H211         2.3200    -1.9800     6.4360 hn         1 98M       0.296800
@<TRIPOS>BOND
     1     1     2 ar  
     2     1    16 ar  
     3     1    17 1   
     4     2    21 ar  
     5     2    37 1   
     6     3    15 ar  
     7     3    21 ar  
     8     3    38 1   
     9     4    23 ar  
    10     4    34 ar  
    11     4    66 1   
    12     5    24 ar  
    13     5    33 ar  
    14     5    66 1   
    15     6     7 ar  
    16     6    24 ar  
    17     6    25 1   
    18     7    26 1   
    19     7    32 ar  
    20     8    26 1   
    21     8    27 1   
    22     8    39 1   
    23     8    68 1   
    24     9    10 1   
    25     9    36 1   
    26     9    67 2   
    27    10    11 1   
    28    10    14 1   
    29    11    12 1   
    30    11    40 1   
    31    11    41 1   
    32    12    13 2   
    33    12    42 1   
    34    13    43 1   
    35    13    44 1   
    36    14    15 1   
    37    14    22 1   
    38    15    16 ar  
    39    17    18 1   
    40    17    19 1   
    41    17    20 1   
    42    18    45 1   
    43    18    46 1   
    44    18    47 1   
    45    19    48 1   
    46    20    49 1   
    47    20    50 1   
    48    20    51 1   
    49    21    52 1   
    50    22    23 ar  
    51    22    36 ar  
    52    24    53 1   
    53    26    31 1   
    54    27    28 1   
    55    27    54 1   
    56    27    55 1   
    57    28    29 1   
    58    28    30 1   
    59    29    56 1   
    60    29    57 1   
    61    29    58 1   
    62    30    31 1   
    63    30    59 1   
    64    30    60 1   
    65    31    61 1   
    66    31    62 1   
    67    32    33 ar  
    68    32    63 1   
    69    33    64 1   
    70    34    35 ar  
    71    35    36 ar  
    72    35    65 1   
    73    66    69 1   
@<TRIPOS>SUBSTRUCTURE
     1 98M         1 TEMP              0 ****  ****    0 ROOT
