@<TRIPOS>MOLECULE
molecule
   69    73     1     0     0
SMALL
bcc


@<TRIPOS>ATOM
      1 C10          0.0000     0.0000     0.0000 ca         1 98M       0.457600
      2 C15          1.3820     0.0000     0.0000 ca         1 98M      -0.222300
      3 C17          1.3250    -0.0010     2.3820 ca         1 98M      -0.207300
      4 C20          1.1140    -0.2990     6.5540 ca         1 98M       0.970900
      5 C22          1.9980    -1.5010     8.4450 ca         1 98M       0.159600
      6 C24          2.2530    -2.9440    10.3450 ca         1 98M       0.068400
      7 C26          2.2330    -1.8360    11.1840 ca         1 98M       0.072600
      8 C28          1.1700    -1.4800    13.2670 c3         1 98M       0.125800
      9 C02         -1.0530     2.6970     4.7460 c          1 98M       0.719100
     10 N03         -0.7240     2.4190     3.4670 n          1 98M      -0.417100
     11 C04         -1.1930     3.1580     2.2920 c3         1 98M       0.178200
     12 C05         -2.4930     2.5650     1.8130 c2         1 98M      -0.213200
     13 C06         -3.5490     3.3270     1.6760 c2         1 98M      -0.196000
     14 N07          0.1360     1.3160     3.4380 na         1 98M      -0.090300
     15 C08         -0.0640    -0.0010     2.3070 ca         1 98M       0.466800
     16 N09         -0.6760    -0.0000     1.1340 nb         1 98M      -0.683000
     17 C11         -0.7440     0.0080    -1.3100 c3         1 98M       0.104500
     18 C12         -2.2460     0.1390    -1.0430 c3         1 98M      -0.115100
     19 O13         -0.3030     1.1120    -2.1030 oh         1 98M      -0.602800
     20 C14         -0.4720    -1.2980    -2.0580 c3         1 98M      -0.115100
     21 C16          2.0610     0.0000     1.2100 ca         1 98M      -0.109000
     22 C18          0.3650     0.8740     4.7210 ca         1 98M       0.527800
     23 N19          1.0830    -0.1100     5.2410 nb         1 98M      -0.790000
     24 C23          2.1350    -2.7760     8.9780 ca         1 98M      -0.156000
     25 Cl25         2.4250    -4.5370    11.0130 cl         1 98M      -0.085400
     26 N27          2.3520    -2.0060    12.5690 nh         1 98M      -0.605000
     27 C29          1.3030    -1.7550    14.7670 c3         1 98M       0.162800
     28 N30          2.5320    -1.1260    15.2700 n3         1 98M      -0.722600
     29 C31          2.4620     0.3370    15.1560 c3         1 98M       0.143100
     30 C32          3.7140    -1.6520    14.5720 c3         1 98M       0.162800
     31 C33          3.5810    -1.3770    13.0720 c3         1 98M       0.125800
     32 C34          2.1060    -0.5620    10.6500 ca         1 98M      -0.138000
     33 C35          1.9830    -0.3950     9.2840 ca         1 98M      -0.118000
     34 N36          0.4410     0.4720     7.3990 nb         1 98M      -0.801000
     35 C37         -0.3020     1.4760     6.9620 ca         1 98M       0.577200
     36 C38         -0.3650     1.7140     5.5920 ca         1 98M      -0.510200
     37 H151         1.9290     0.0010    -0.9350 ha         1 98M       0.155000
     38 H171         1.8420     0.7110     3.0140 ha         1 98M       0.184000
     39 H282         1.1000    -0.4120    13.1010 h1         1 98M       0.042950
     40 H042        -1.3460     4.1970     2.5570 h1         1 98M       0.074700
     41 H041        -0.4530     3.0910     1.5040 h1         1 98M       0.074700
     42 H051        -2.5540     1.5080     1.5810 ha         1 98M       0.153000
     43 H061        -4.4840     2.9020     1.3310 ha         1 98M       0.115000
     44 H062        -3.4880     4.3840     1.9080 ha         1 98M       0.115000
     45 H122        -2.5900    -0.7240    -0.4870 hc         1 98M       0.048533
     46 H121        -2.4330     1.0380    -0.4680 hc         1 98M       0.048533
     47 H123        -2.7760     0.1960    -1.9860 hc         1 98M       0.048533
     48 H131        -0.8310     1.1700    -2.8820 ho         1 98M       0.412000
     49 H142        -0.5040    -2.1270    -1.3610 hc         1 98M       0.048533
     50 H141         0.5070    -1.2520    -2.5200 hc         1 98M       0.048533
     51 H143        -1.2260    -1.4400    -2.8230 hc         1 98M       0.048533
     52 H161         3.1440    -0.0000     1.2360 ha         1 98M       0.145000
     53 H231         2.1510    -3.6390     8.3230 ha         1 98M       0.148000
     54 H292         1.3510    -2.8240    14.9340 h1         1 98M       0.063950
     55 H291         0.4480    -1.3410    15.2860 h1         1 98M       0.063950
     56 H312         3.3450     0.7770    15.6020 h1         1 98M       0.032700
     57 H311         2.4080     0.6150    14.1110 h1         1 98M       0.032700
     58 H313         1.5800     0.6970    15.6710 h1         1 98M       0.032700
     59 H322         3.7840    -2.7210    14.7380 h1         1 98M       0.063950
     60 H321         4.6030    -1.1630    14.9510 h1         1 98M       0.063950
     61 H331         4.4360    -1.7920    12.5530 h1         1 98M       0.042950
     62 H332         3.5330    -0.3080    12.9050 h1         1 98M       0.042950
     63 H341         2.0930     0.3010    11.3040 ha         1 98M       0.141000
     64 H351         1.8850     0.6000     8.8660 ha         1 98M       0.163000
     65 H371        -0.8490     2.1020     7.6580 h4         1 98M       0.049100
     66 N21          1.8800    -1.3320     7.0590 nu         1 98M      -0.743300
     67 O01         -1.7830     3.5930     5.1260 o          1 98M      -0.603500
     68 H281         0.2810    -1.9690    12.8880 h1         1 98M       0.042950
     69 H211         2.3860    -1.9300     6.4360 hn         1 98M       0.472800
@<TRIPOS>BOND
     1    29    28 1
     2    28    27 1
     3    28    30 1
     4    20    17 1
     5    27     8 1
     6    30    31 1
     7     2    21 ar
     8     2     1 ar
     9    18    17 1
    10     8    26 1
    11    17     1 1
    12    17    19 1
    13    21     3 ar
    14    31    26 1
    15     1    16 ar
    16    26     7 1
    17     3    15 ar
    18    16    15 ar
    19    32     7 ar
    20    32    33 ar
    21     7     6 ar
    22    15    14 1
    23    12    13 2
    24    12    11 1
    25    33     5 ar
    26     6    25 1
    27     6    24 ar
    28    14    10 1
    29    14    22 1
    30    11    10 1
    31     5    24 ar
    32     5    66 1
    33    10     9 1
    34    23    22 ar
    35    23     4 ar
    36    22    36 ar
    37    66     4 1
    38     4    34 ar
    39     9    36 1
    40     9    67 2
    41    36    35 ar
    42    34    35 ar
    43     2    37 1
    44     3    38 1
    45     8    68 1
    46     8    39 1
    47    11    40 1
    48    11    41 1
    49    12    42 1
    50    13    43 1
    51    13    44 1
    52    18    45 1
    53    18    46 1
    54    18    47 1
    55    19    48 1
    56    20    49 1
    57    20    50 1
    58    20    51 1
    59    21    52 1
    60    66    69 1
    61    24    53 1
    62    27    54 1
    63    27    55 1
    64    29    56 1
    65    29    57 1
    66    29    58 1
    67    30    59 1
    68    30    60 1
    69    31    61 1
    70    31    62 1
    71    32    63 1
    72    33    64 1
    73    35    65 1
@<TRIPOS>SUBSTRUCTURE
     1 98M         1 TEMP              0 ****  ****    0 ROOT
