@<TRIPOS>MOLECULE
molecule
   73    76     1     0     0
SMALL
bcc


@<TRIPOS>ATOM
      1 C1           0.0000     0.0000     0.0000 ca         1 98N      -0.235600
      2 C2           1.3870     0.0000     0.0000 ca         1 98N       0.450600
      3 C11          3.0110     0.9860    -1.6170 c3         1 98N      -0.054700
      4 C12          2.6180     2.3460    -1.0370 c3         1 98N      -0.086600
      5 C13          4.2470     0.4580    -0.8840 c3         1 98N      -0.086600
      6 C16         -0.5570    -0.0090     6.1380 c3         1 98N       0.065700
      7 C17          0.4770    -0.0110     7.2360 ca         1 98N       0.445600
      8 C19          1.9030    -1.2020     8.5960 ca         1 98N       0.517200
      9 C20          2.3420    -0.0470     9.2140 ca         1 98N      -0.423800
     10 C21          1.8140     1.1730     8.8190 ca         1 98N       0.005000
     11 C22          0.8630     1.1860     7.8110 ca         1 98N      -0.259300
     12 C24          5.1390     0.0130     9.6200 c3         1 98N      -0.205600
     13 C25          6.2840    -0.0420    10.6340 c3         1 98N      -0.074100
     14 C28          0.6820    -0.2130    -3.5580 c3         1 98N       0.155800
     15 C29         -0.3710     0.4520    -4.4470 c3         1 98N      -0.069700
     16 C30          0.0320     1.9020    -4.7190 c3         1 98N      -0.070900
     17 N3           2.0600     0.0000     1.1360 nb         1 98N      -0.685000
     18 C4           1.4560    -0.0010     2.3060 ca         1 98N       0.448200
     19 C5           0.0630    -0.0020     2.3870 ca         1 98N      -0.272900
     20 C6          -0.6820    -0.0010     1.2010 ca         1 98N      -0.015000
     21 C7          -0.6140    -0.0050     3.7020 c          1 98N       0.680700
     22 C8          -0.4770     0.0090    -1.4320 c3         1 98N       0.194100
     23 N9           0.6890     0.4340    -2.2400 n3         1 98N      -0.692600
     24 C10          1.8550     0.0020    -1.4390 c3         1 98N       0.110200
     25 O14         -1.8280    -0.0060     3.7600 o          1 98N      -0.602100
     26 N15          0.1150    -0.0060     4.8360 ns         1 98N      -0.580900
     27 N18          0.9970    -1.1520     7.6390 nb         1 98N      -0.694000
     28 S23          3.5530    -0.1230    10.4910 sy         1 98N       1.194300
     29 O26          3.3130     1.0390    11.2730 o          1 98N      -0.613300
     30 O27          3.3980    -1.4230    11.0440 o          1 98N      -0.613300
     31 C31         -1.0200     2.5660    -5.6080 c3         1 98N      -0.079400
     32 C32         -1.1200     1.8080    -6.9330 c3         1 98N      -0.118700
     33 C33         -1.5250     0.3580    -6.6610 c3         1 98N      -0.079400
     34 C34         -0.4710    -0.3060    -5.7720 c3         1 98N      -0.070900
     35 C35         -2.1730     2.4730    -7.8230 c3         1 98N       0.613900
     36 F36         -1.8040     3.8000    -8.0710 f          1 98N      -0.228633
     37 F37         -2.2650     1.7800    -9.0350 f          1 98N      -0.228633
     38 F38         -3.4140     2.4480    -7.1760 f          1 98N      -0.228633
     39 H1           3.2360     1.0930    -2.6710 hc         1 98N       0.051700
     40 H2           1.5620     2.5180    -1.2040 hc         1 98N       0.039200
     41 H3           2.8230     2.3590     0.0260 hc         1 98N       0.039200
     42 H4           3.1920     3.1260    -1.5240 hc         1 98N       0.039200
     43 H5           4.3520     0.9720     0.0640 hc         1 98N       0.039200
     44 H6           4.1360    -0.6060    -0.7080 hc         1 98N       0.039200
     45 H7           5.1290     0.6330    -1.4890 hc         1 98N       0.039200
     46 H8          -1.1760    -0.8940     6.2230 h1         1 98N       0.074700
     47 H9          -1.1760     0.8750     6.2270 h1         1 98N       0.074700
     48 H10          2.3090    -2.1590     8.9000 h4         1 98N       0.048100
     49 H11          2.1380     2.0950     9.2870 ha         1 98N       0.162000
     50 H12          0.4290     2.1210     7.4780 ha         1 98N       0.152000
     51 H13          5.2390    -0.8070     8.9190 h1         1 98N       0.097700
     52 H14          5.1760     0.9530     9.0840 h1         1 98N       0.097700
     53 H15          6.1850     0.7790    11.3340 hc         1 98N       0.054033
     54 H16          7.2310     0.0400    10.1140 hc         1 98N       0.054033
     55 H17          6.2460    -0.9820    11.1710 hc         1 98N       0.054033
     56 H18          1.6580    -0.1110    -4.0150 h1         1 98N       0.041200
     57 H19          0.4450    -1.2640    -3.4420 h1         1 98N       0.041200
     58 H20         -1.3330     0.4340    -3.9500 hc         1 98N       0.057700
     59 H21          0.9920     1.9210    -5.2210 hc         1 98N       0.051200
     60 H22          0.1000     2.4390    -3.7800 hc         1 98N       0.051200
     61 H23          2.0460    -0.0020     3.2140 h4         1 98N       0.019100
     62 H24         -1.7650    -0.0020     1.2250 ha         1 98N       0.165000
     63 H25         -1.2900     0.7150    -1.5500 h1         1 98N       0.058200
     64 H26         -0.7910    -0.9860    -1.7270 h1         1 98N       0.058200
     65 H28          2.1570    -0.9960    -1.7330 h1         1 98N       0.055700
     66 H29          1.1140    -0.0310     4.7880 hn         1 98N       0.318500
     67 H30         -0.7320     3.5920    -5.8020 hc         1 98N       0.057700
     68 H31         -1.9800     2.5440    -5.1070 hc         1 98N       0.057700
     69 H32         -0.1580     1.8250    -7.4300 hc         1 98N       0.084700
     70 H33         -1.5930    -0.1790    -7.6000 hc         1 98N       0.057700
     71 H34         -2.4840     0.3400    -6.1580 hc         1 98N       0.057700
     72 H35         -0.7590    -1.3330    -5.5790 hc         1 98N       0.051200
     73 H36          0.4890    -0.2840    -6.2730 hc         1 98N       0.051200
@<TRIPOS>BOND
     1     4     3 1
     2    37    35 1
     3     3    24 1
     4     3     5 1
     5    36    35 1
     6    32    35 1
     7    32    33 1
     8    32    31 1
     9    35    38 1
    10    24    23 1
    11    24     2 1
    12    14    15 1
    13    14    23 1
    14    34    33 1
    15    34    15 1
    16    16    31 1
    17    16    15 1
    18    23    22 1
    19    17     2 ar
    20    17    18 ar
    21     2     1 ar
    22    18    19 ar
    23    22     1 1
    24     1    20 ar
    25    19    20 ar
    26    19    21 1
    27    26    21 1
    28    26     6 1
    29    21    25 2
    30    11    10 ar
    31    11     7 ar
    32     6     7 1
    33    10     9 ar
    34     7    27 ar
    35    30    28 2
    36     9    28 1
    37     9     8 ar
    38    27     8 ar
    39    13    12 1
    40    28    12 1
    41    28    29 2
    42     3    39 1
    43     4    40 1
    44     4    41 1
    45     4    42 1
    46     5    43 1
    47     5    44 1
    48     5    45 1
    49     6    46 1
    50     6    47 1
    51     8    48 1
    52    10    49 1
    53    11    50 1
    54    12    51 1
    55    12    52 1
    56    13    53 1
    57    13    54 1
    58    13    55 1
    59    14    56 1
    60    14    57 1
    61    15    58 1
    62    16    59 1
    63    16    60 1
    64    18    61 1
    65    20    62 1
    66    22    63 1
    67    22    64 1
    68    24    65 1
    69    26    66 1
    70    31    67 1
    71    31    68 1
    72    32    69 1
    73    33    70 1
    74    33    71 1
    75    34    72 1
    76    34    73 1
@<TRIPOS>SUBSTRUCTURE
     1 98N         1 TEMP              0 ****  ****    0 ROOT
