@<TRIPOS>MOLECULE
98N
   73    76     1     0     0
SMALL
bcc


@<TRIPOS>ATOM
      1 C1           0.0000     0.0000     0.0000 ca         1 98N      -0.238600
      2 C2           1.3870     0.0000     0.0000 ca         1 98N       0.390600
      3 C11          3.0110     0.9860    -1.6170 c3         1 98N      -0.037700
      4 C12          2.6180     2.3460    -1.0370 c3         1 98N      -0.005100
      5 C13          4.2470     0.4580    -0.8840 c3         1 98N      -0.005100
      6 C16         -0.5570    -0.0090     6.1380 c3         1 98N       0.003700
      7 C17          0.4770    -0.0110     7.2360 ca         1 98N       0.388600
      8 C19          1.9030    -1.2020     8.5960 ca         1 98N       0.505200
      9 C20          2.3420    -0.0470     9.2140 ca         1 98N      -0.278800
     10 C21          1.8140     1.1730     8.8190 ca         1 98N       0.037000
     11 C22          0.8630     1.1860     7.8110 ca         1 98N      -0.234300
     12 C24          5.1390     0.0130     9.6200 c3         1 98N       0.006400
     13 C25          6.2840    -0.0420    10.6340 c3         1 98N       0.038900
     14 C28          0.6820    -0.2130    -3.5580 c3         1 98N       0.152800
     15 C29         -0.3710     0.4520    -4.4470 c3         1 98N      -0.056700
     16 C30          0.0320     1.9020    -4.7190 c3         1 98N      -0.018900
     17 N3           2.0600     0.0000     1.1360 nb         1 98N      -0.555000
     18 C4           1.4560    -0.0010     2.3060 ca         1 98N       0.414200
     19 C5           0.0630    -0.0020     2.3870 ca         1 98N      -0.275900
     20 C6          -0.6820    -0.0010     1.2010 ca         1 98N       0.021000
     21 C7          -0.6140    -0.0050     3.7020 c          1 98N       0.603700
     22 C8          -0.4770     0.0090    -1.4320 c3         1 98N       0.215100
     23 N9           0.6890     0.4340    -2.2400 n3         1 98N      -0.530600
     24 C10          1.8550     0.0020    -1.4390 c3         1 98N       0.086200
     25 O14         -1.8280    -0.0060     3.7600 o          1 98N      -0.644100
     26 N15          0.1150    -0.0060     4.8360 ns         1 98N      -0.190900
     27 N18          0.9970    -1.1520     7.6390 nb         1 98N      -0.588000
     28 S23          3.5530    -0.1230    10.4910 sy         1 98N       0.879300
     29 O26          3.3130     1.0390    11.2730 o          1 98N      -0.580800
     30 O27          3.3980    -1.4230    11.0440 o          1 98N      -0.580800
     31 C31         -1.0200     2.5660    -5.6080 c3         1 98N      -0.023900
     32 C32         -1.1200     1.8080    -6.9330 c3         1 98N      -0.111700
     33 C33         -1.5250     0.3580    -6.6610 c3         1 98N      -0.023900
     34 C34         -0.4710    -0.3060    -5.7720 c3         1 98N      -0.018900
     35 C35         -2.1730     2.4730    -7.8230 c3         1 98N       0.571900
     36 F36         -1.8040     3.8000    -8.0710 f          1 98N      -0.209300
     37 F37         -2.2650     1.7800    -9.0350 f          1 98N      -0.209300
     38 F38         -3.4140     2.4480    -7.1760 f          1 98N      -0.209300
     39 H1           3.2360     1.0930    -2.6710 hc         1 98N       0.027700
     40 H2           1.5620     2.5180    -1.2040 hc         1 98N       0.009533
     41 H3           2.8230     2.3590     0.0260 hc         1 98N       0.009533
     42 H4           3.1920     3.1260    -1.5240 hc         1 98N       0.009533
     43 H5           4.3520     0.9720     0.0640 hc         1 98N       0.009533
     44 H6           4.1360    -0.6060    -0.7080 hc         1 98N       0.009533
     45 H7           5.1290     0.6330    -1.4890 hc         1 98N       0.009533
     46 H8          -1.1760    -0.8940     6.2230 h1         1 98N       0.040200
     47 H9          -1.1760     0.8750     6.2270 h1         1 98N       0.040200
     48 H10          2.3090    -2.1590     8.9000 h4         1 98N       0.004100
     49 H11          2.1380     2.0950     9.2870 ha         1 98N       0.130000
     50 H12          0.4290     2.1210     7.4780 ha         1 98N       0.126000
     51 H13          5.2390    -0.8070     8.9190 h1         1 98N       0.062200
     52 H14          5.1760     0.9530     9.0840 h1         1 98N       0.062200
     53 H15          6.1850     0.7790    11.3340 hc         1 98N       0.014367
     54 H16          7.2310     0.0400    10.1140 hc         1 98N       0.014367
     55 H17          6.2460    -0.9820    11.1710 hc         1 98N       0.014367
     56 H18          1.6580    -0.1110    -4.0150 h1         1 98N       0.016700
     57 H19          0.4450    -1.2640    -3.4420 h1         1 98N       0.016700
     58 H20         -1.3330     0.4340    -3.9500 hc         1 98N       0.036700
     59 H21          0.9920     1.9210    -5.2210 hc         1 98N       0.023950
     60 H22          0.1000     2.4390    -3.7800 hc         1 98N       0.023950
     61 H23          2.0460    -0.0020     3.2140 h4         1 98N      -0.022900
     62 H24         -1.7650    -0.0020     1.2250 ha         1 98N       0.133000
     63 H25         -1.2900     0.7150    -1.5500 h1         1 98N       0.025700
     64 H26         -0.7910    -0.9860    -1.7270 h1         1 98N       0.025700
     65 H28          2.1570    -0.9960    -1.7330 h1         1 98N       0.031700
     66 H29          1.1140    -0.0310     4.7880 hn         1 98N       0.179500
     67 H30         -0.7320     3.5920    -5.8020 hc         1 98N       0.029700
     68 H31         -1.9800     2.5440    -5.1070 hc         1 98N       0.029700
     69 H32         -0.1580     1.8250    -7.4300 hc         1 98N       0.062700
     70 H33         -1.5930    -0.1790    -7.6000 hc         1 98N       0.029700
     71 H34         -2.4840     0.3400    -6.1580 hc         1 98N       0.029700
     72 H35         -0.7590    -1.3330    -5.5790 hc         1 98N       0.023950
     73 H36          0.4890    -0.2840    -6.2730 hc         1 98N       0.023950
@<TRIPOS>BOND
     1     1     2 ar  
     2     1    20 ar  
     3     1    22 1   
     4     2    17 ar  
     5     2    24 1   
     6     3     4 1   
     7     3     5 1   
     8     3    24 1   
     9     3    39 1   
    10     4    40 1   
    11     4    41 1   
    12     4    42 1   
    13     5    43 1   
    14     5    44 1   
    15     5    45 1   
    16     6     7 1   
    17     6    26 1   
    18     6    46 1   
    19     6    47 1   
    20     7    11 ar  
    21     7    27 ar  
    22     8     9 ar  
    23     8    27 ar  
    24     8    48 1   
    25     9    10 ar  
    26     9    28 1   
    27    10    11 ar  
    28    10    49 1   
    29    11    50 1   
    30    12    13 1   
    31    12    28 1   
    32    12    51 1   
    33    12    52 1   
    34    13    53 1   
    35    13    54 1   
    36    13    55 1   
    37    14    15 1   
    38    14    23 1   
    39    14    56 1   
    40    14    57 1   
    41    15    16 1   
    42    15    34 1   
    43    15    58 1   
    44    16    31 1   
    45    16    59 1   
    46    16    60 1   
    47    17    18 ar  
    48    18    19 ar  
    49    18    61 1   
    50    19    20 ar  
    51    19    21 1   
    52    20    62 1   
    53    21    25 2   
    54    21    26 1   
    55    22    23 1   
    56    22    63 1   
    57    22    64 1   
    58    23    24 1   
    59    24    65 1   
    60    26    66 1   
    61    28    29 2   
    62    28    30 2   
    63    31    32 1   
    64    31    67 1   
    65    31    68 1   
    66    32    33 1   
    67    32    35 1   
    68    32    69 1   
    69    33    34 1   
    70    33    70 1   
    71    33    71 1   
    72    34    72 1   
    73    34    73 1   
    74    35    36 1   
    75    35    37 1   
    76    35    38 1   
@<TRIPOS>SUBSTRUCTURE
     1 98N         1 TEMP              0 ****  ****    0 ROOT
