@<TRIPOS>MOLECULE
molecule
   46    49     1     0     0
SMALL
bcc


@<TRIPOS>ATOM
      1 F17          0.0000     0.0000     0.0000 f          1 990      -0.137900
      2 C16          1.3510     0.0000     0.0000 ca         1 990       0.133900
      3 C18          2.0400     0.0000     1.1980 ca         1 990      -0.150000
      4 C8           3.4350     0.0000     1.1950 cp         1 990      -0.112500
      5 C21          4.1810    -0.0010     2.4770 cp         1 990       0.509800
      6 N26          5.1560     0.8770     2.6710 nb         1 990      -0.780000
      7 C25          5.8450     0.9090     3.7990 ca         1 990       0.659600
      8 O27          6.8340     1.8240     3.9550 os         1 990      -0.439100
      9 C28          6.9990     2.7860     2.9110 c3         1 990       0.131700
     10 C24          5.5660     0.0160     4.8260 ca         1 990      -0.264300
     11 C23          4.5550    -0.9160     4.6600 ca         1 990      -0.060000
     12 C22          3.8480    -0.9210     3.4680 ca         1 990      -0.272300
     13 C19          2.0430    -0.0040    -1.2000 ca         1 990      -0.156000
     14 C20          3.4260    -0.0030    -1.2070 ca         1 990      -0.092000
     15 C7           4.1240     0.0010    -0.0160 ca         1 990      -0.096300
     16 C6           5.6310     0.0020    -0.0250 c3         1 990       0.151000
     17 N9           6.1010     0.4630    -1.3280 ns         1 990      -0.577900
     18 C1           6.1850    -0.3780    -2.3790 c          1 990       0.724100
     19 O2           6.5220     0.0320    -3.4730 o          1 990      -0.644500
     20 C5           6.1350    -1.4070     0.2760 c3         1 990      -0.140700
     21 C4           5.8330    -2.3180    -0.8820 ca         1 990       0.509600
     22 N15          5.5440    -3.5890    -0.7070 nb         1 990      -0.764000
     23 C13          5.2840    -4.3700    -1.7490 ca         1 990       0.960900
     24 N14          4.9840    -5.6990    -1.5290 nv         1 990      -1.056500
     25 N12          5.3010    -3.9160    -2.9960 nb         1 990      -0.762000
     26 C10          5.5820    -2.6490    -3.2540 ca         1 990       0.536600
     27 C3           5.8610    -1.8020    -2.1820 ca         1 990      -0.426200
     28 C11          5.6020    -2.1340    -4.6700 c3         1 990      -0.142400
     29 H1           1.5010     0.0840     2.1330 ha         1 990       0.152000
     30 H2           7.5790     2.3500     2.1070 h1         1 990       0.048033
     31 H3           6.0270     3.0830     2.5360 h1         1 990       0.048033
     32 H4           7.5170     3.6550     3.2990 h1         1 990       0.048033
     33 H5           6.1360     0.0460     5.7470 ha         1 990       0.154000
     34 H6           4.3180    -1.6220     5.4470 ha         1 990       0.147000
     35 H7           3.0510    -1.6370     3.3070 ha         1 990       0.150000
     36 H8           1.4990    -0.0070    -2.1370 ha         1 990       0.150000
     37 H9           3.9630    -0.0040    -2.1480 ha         1 990       0.152000
     38 H10          5.9940     0.6770     0.7400 h1         1 990       0.108700
     39 H11          6.3660     1.4210    -1.4440 hn         1 990       0.333500
     40 H12          7.2080    -1.3690     0.4180 hc         1 990       0.084200
     41 H13          5.6210    -1.7800     1.1540 hc         1 990       0.084200
     42 H14          4.0330    -6.0090    -1.5640 hn         1 990       0.447800
     43 H15          5.7140    -6.3470    -1.3110 hn         1 990       0.447800
     44 H16          5.2950    -2.9230    -5.3460 hc         1 990       0.066700
     45 H17          6.6050    -1.8120    -4.9230 hc         1 990       0.066700
     46 H18          4.9210    -1.2960    -4.7590 hc         1 990       0.066700
@<TRIPOS>BOND
     1    19    18 2
     2    13    14 ar
     3    13     2 ar
     4    14    15 ar
     5    18    17 1
     6    18    27 1
     7    28    26 1
     8    17    16 1
     9     1     2 1
    10    26    27 ar
    11    26    25 ar
    12    27    21 ar
    13     2     3 ar
    14    15    16 1
    15    15     4 ar
    16    25    23 ar
    17    21    20 1
    18    21    22 ar
    19    20    16 1
    20    23    22 ar
    21    23    24 1
    22     3     4 ar
    23     4     5 1
    24     5     6 ar
    25     5    12 ar
    26     6     7 ar
    27    12    11 ar
    28     9     8 1
    29     7     8 1
    30     7    10 ar
    31    11    10 ar
    32     3    29 1
    33     9    30 1
    34     9    31 1
    35     9    32 1
    36    10    33 1
    37    11    34 1
    38    12    35 1
    39    13    36 1
    40    14    37 1
    41    16    38 1
    42    17    39 1
    43    20    40 1
    44    20    41 1
    45    24    42 1
    46    24    43 1
    47    28    44 1
    48    28    45 1
    49    28    46 1
@<TRIPOS>SUBSTRUCTURE
     1 990         1 TEMP              0 ****  ****    0 ROOT
