@<TRIPOS>MOLECULE
molecule
   47    50     1     0     0
SMALL
bcc


@<TRIPOS>ATOM
      1 C1           0.0000     0.0000     0.0000 ca         1 991      -0.162900
      2 C2           1.4020     0.0000     0.0000 ca         1 991       0.000400
      3 Cl2          2.2630     0.0140    -1.5080 cl         1 991      -0.112400
      4 C3           2.1010     0.0000     1.1840 ca         1 991      -0.083000
      5 C4           1.4190    -0.0120     2.3990 ca         1 991       0.008000
      6 C5           0.0090    -0.0170     2.4060 ca         1 991      -0.111000
      7 C6          -0.6960    -0.0110     1.2040 ca         1 991      -0.005000
      8 C7          -0.7390     0.0060    -1.2800 ce         1 991       0.049800
      9 N1          -0.5140    -0.9480    -2.1830 nz         1 991      -0.668600
     10 N2          -1.6290     0.9650    -1.5310 nv         1 991      -0.479100
     11 N3           1.8370    -0.0200     3.7090 na         1 991      -0.182600
     12 CN4         -0.3930    -0.0280     3.8130 cc         1 991      -0.129000
     13 C8           0.7460    -0.0300     4.5480 cc         1 991       0.027900
     14 C1'          0.8080    -0.0390     6.0250 cd         1 991      -0.053000
     15 C2'         -0.0900     0.7290     6.7690 cd         1 991      -0.138000
     16 C3'         -0.0310     0.7180     8.1470 cc         1 991      -0.020000
     17 C4'          0.9170    -0.0520     8.7990 cc         1 991      -0.255000
     18 C5'          1.8140    -0.8200     8.0730 cd         1 991       0.155100
     19 O5'          2.7420    -1.5750     8.7180 os         1 991      -0.218900
     20 C6'          1.7610    -0.8220     6.6830 c          1 991       0.416100
     21 O6'          2.6390    -1.5740     5.9680 o          1 991      -0.523100
     22 C1B          3.0540    -2.6800    10.8630 c3         1 991      -0.096400
     23 C2B          2.4570    -1.4750    10.1160 c3         1 991       0.089100
     24 C3B          3.1260    -0.2160    10.7030 c3         1 991      -0.096400
     25 C4B          3.5900    -0.6560    12.1140 c3         1 991      -0.081900
     26 C5B          4.0650    -2.1110    11.8790 c3         1 991      -0.081900
     27 HC3          3.1840     0.0000     1.1730 ha         1 991       0.162000
     28 HC6         -1.7800    -0.0110     1.2080 ha         1 991       0.148000
     29 HH11        -1.3880    -1.3080    -2.5130 hn         1 991       0.435133
     30 HH12         0.0010    -0.5670    -2.9510 hn         1 991       0.435133
     31 HH21        -2.1290     0.9690    -2.3980 hn         1 991       0.301700
     32 HH22        -1.7970     1.6810    -0.8530 hn         1 991       0.301700
     33 HN3          2.7920    -0.0190     4.0070 hn         1 991       0.330700
     34 HCN4        -1.4070    -0.0350     4.1950 ha         1 991       0.172000
     35 HC2'        -0.8340     1.3330     6.2640 ha         1 991       0.152000
     36 HC3'        -0.7280     1.3150     8.7220 ha         1 991       0.156000
     37 HC4'         0.9580    -0.0560     9.8810 ha         1 991       0.176000
     38 H1A          3.5610    -3.3340    10.1640 hc         1 991       0.063200
     39 H1B          2.2700    -3.2180    11.3820 hc         1 991       0.063200
     40 H2A          1.3870    -1.4330    10.2780 h1         1 991       0.067700
     41 H3A          3.9780     0.0760    10.1000 hc         1 991       0.063200
     42 H3B          2.4100     0.5940    10.7770 hc         1 991       0.063200
     43 H4A          2.7630    -0.6320    12.8130 hc         1 991       0.056950
     44 H4B          4.4100    -0.0370    12.4560 hc         1 991       0.056950
     45 H5A          4.0280    -2.6740    12.8040 hc         1 991       0.056950
     46 H5B          5.0640    -2.1200    11.4620 hc         1 991       0.056950
     47 H13          0.0190    -1.6850    -1.7650 hn         1 991       0.435133
@<TRIPOS>BOND
     1     1     2 ar
     2     1     7 ar
     3     1     8 1
     4     2     3 1
     5     2     4 ar
     6     4     5 ar
     7     4    27 1
     8     5     6 ar
     9     5    11 2
    10     6     7 ar
    11     6    12 2
    12     7    28 1
    13     8     9 1
    14     8    10 2
    15     9    29 1
    16     9    30 1
    17    10    31 1
    18    10    32 1
    19    11    13 1
    20    11    33 1
    21    12    13 1
    22    12    34 1
    23    13    14 2
    24    14    15 1
    25    14    20 1
    26    15    16 2
    27    15    35 1
    28    16    17 1
    29    16    36 1
    30    17    18 2
    31    17    37 1
    32    18    19 1
    33    18    20 1
    34    19    23 1
    35    20    21 2
    36    22    23 1
    37    22    26 1
    38    22    38 1
    39    22    39 1
    40    23    24 1
    41    23    40 1
    42    24    25 1
    43    24    41 1
    44    24    42 1
    45    25    26 1
    46    25    43 1
    47    25    44 1
    48    26    45 1
    49    26    46 1
    50    47     9 1
@<TRIPOS>SUBSTRUCTURE
     1 991         1 TEMP              0 ****  ****    0 ROOT
