@<TRIPOS>MOLECULE
991
   46    49     1     0     0
SMALL
bcc


@<TRIPOS>ATOM
      1 C1          0.0790   -0.0690   -0.0360 ca        1 991     -0.288900
      2 C2          1.3510   -0.6740    0.0660 ca        1 991      0.015400
      3 CL2         2.2380   -1.0940   -1.3360 cl        1 991     -0.124400
      4 C3          1.9580   -0.8970    1.2990 ca        1 991     -0.131000
      5 C4          1.2670   -0.5150    2.4510 ca        1 991      0.039000
      6 C5         -0.0600    0.1200    2.3670 ca        1 991     -0.023000
      7 C6         -0.6190    0.3340    1.1190 ca        1 991     -0.110000
      8 C7         -0.5660    0.1650   -1.3370 ce        1 991      0.536400
      9 N1         -0.6280   -0.8360   -2.2510 nh        1 991     -0.489100
     10 N2         -1.1210    1.3830   -1.5720 nh        1 991     -0.473200
     11 N3          1.6000   -0.6180    3.7840 na        1 991     -0.214600
     12 CN4        -0.4730    0.3800    3.6990 cc        1 991     -0.328000
     13 C8          0.5590   -0.0770    4.5760 cc        1 991      0.174900
     14 C1'         0.6050   -0.0260    5.9900 cd        1 991     -0.339200
     15 C2'        -0.5050    0.5280    6.6880 cd        1 991     -0.040000
     16 C3'        -0.5360    0.6200    8.0500 cc        1 991     -0.232000
     17 C4'         0.5690    0.1610    8.8190 cc        1 991     -0.139000
     18 C5'         1.6530   -0.3870    8.1950 cd        1 991     -0.030100
     19 O5'         2.7970   -0.8060    8.8570 os        1 991     -0.310900
     20 C6'         1.7450   -0.5250    6.7310 c         1 991      0.591500
     21 O6'         2.7570   -1.0490    6.1980 o         1 991     -0.681100
     22 C1B         3.6910   -2.3960   10.3810 c3        1 991     -0.095900
     23 C2B         2.5870   -1.3540   10.1650 c3        1 991      0.139100
     24 C3B         2.7600   -0.2770   11.2440 c3        1 991     -0.095900
     25 C4B         3.8920   -0.7200   12.1590 c3        1 991     -0.076400
     26 C5B         4.2880   -2.1340   11.7540 c3        1 991     -0.076400
     27 HC3         2.9560   -1.3560    1.3610 ha        1 991      0.161000
     28 HC6        -1.6210    0.7800    1.0470 ha        1 991      0.129000
     29 HH11       -0.1800   -1.7010   -2.0310 hn        1 991      0.313450
     30 HH12       -0.9870   -0.7100   -3.1680 hn        1 991      0.313450
     31 HH21       -1.0550    2.0730   -0.8540 hn        1 991      0.313450
     32 HH22       -1.6320    1.5990   -2.3950 hn        1 991      0.313450
     33 HN3         2.4390   -0.9960    4.1720 hn        1 991      0.350700
     34 HCN4       -1.4030    0.8420    4.0050 ha        1 991      0.157000
     35 HC2'       -1.3640    0.8880    6.1000 ha        1 991      0.106000
     36 HC3'       -1.4000    1.0480    8.5730 ha        1 991      0.115000
     37 HC4'        0.5300    0.2540    9.9140 ha        1 991      0.120000
     38 H1A         3.2700   -3.4280   10.3100 hc        1 991      0.053700
     39 H1B         4.4660   -2.2880    9.5800 hc        1 991      0.053700
     40 H2A         1.5700   -1.8240   10.2300 h1        1 991      0.047700
     41 H3A         2.9950    0.7060   10.7650 hc        1 991      0.053700
     42 H3B         1.8100   -0.1570   11.8210 hc        1 991      0.053700
     43 H4A         3.5740   -0.6900   13.2310 hc        1 991      0.036200
     44 H4B         4.7660   -0.0290   12.0520 hc        1 991      0.036200
     45 H5A         3.8930   -2.8730   12.4960 hc        1 991      0.036200
     46 H5B         5.4000   -2.2460   11.7320 hc        1 991      0.036200
@<TRIPOS>BOND
     1    1    2 ar  
     2    1    7 ar  
     3    1    8 1   
     4    2    3 1   
     5    2    4 ar  
     6    4    5 ar  
     7    4   27 1   
     8    5    6 ar  
     9    5   11 2   
    10    6    7 ar  
    11    6   12 2   
    12    7   28 1   
    13    8    9 2   
    14    8   10 1   
    15    9   29 1   
    16    9   30 1   
    17   10   31 1   
    18   10   32 1   
    19   11   13 1   
    20   11   33 1   
    21   12   13 1   
    22   12   34 1   
    23   13   14 2   
    24   14   15 1   
    25   14   20 1   
    26   15   16 2   
    27   15   35 1   
    28   16   17 1   
    29   16   36 1   
    30   17   18 2   
    31   17   37 1   
    32   18   19 1   
    33   18   20 1   
    34   19   23 1   
    35   20   21 2   
    36   22   23 1   
    37   22   26 1   
    38   22   38 1   
    39   22   39 1   
    40   23   24 1   
    41   23   40 1   
    42   24   25 1   
    43   24   41 1   
    44   24   42 1   
    45   25   26 1   
    46   25   43 1   
    47   25   44 1   
    48   26   45 1   
    49   26   46 1   
@<TRIPOS>SUBSTRUCTURE
     1 991         1 TEMP              0 ****  ****    0 ROOT
