@<TRIPOS>MOLECULE
992
   48    52     1     0     0
SMALL
bcc


@<TRIPOS>ATOM
      1 C6         -0.5680    0.2870    0.2840 ca        1 992     -0.098800
      2 C21         0.6810    0.8450    0.5530 ca        1 992     -0.059000
      3 C5         -0.8510   -1.0700    0.6950 ca        1 992     -0.041200
      4 N7         -2.1530   -1.3870    0.2790 na        1 992     -0.086400
      5 C4          0.1160   -1.8310    1.3690 ca        1 992     -0.153000
      6 C3          1.3430   -1.2420    1.6230 ca        1 992     -0.094000
      7 C2          1.6360    0.0810    1.2210 cp        1 992     -0.054000
      8 C1         -2.8760   -2.5610    0.6250 c3        1 992      0.035600
      9 C7          2.9510    0.6410    1.5490 cp        1 992     -0.056000
     10 C10         3.8370    1.0980    0.5480 ca        1 992      0.028400
     11 C11         5.0890    1.6340    0.8460 ca        1 992     -0.122000
     12 C12         5.4520    1.7070    2.1900 ca        1 992     -0.064200
     13 C13         4.5610    1.2390    3.2430 ca        1 992      0.079400
     14 C14         3.3170    0.7070    2.8960 ca        1 992     -0.074000
     15 N21         6.6050    2.1680    2.8300 na        1 992     -0.293300
     16 N22         5.1610    1.4300    4.5050 nc        1 992     -0.592100
     17 C23         6.3710    1.9810    4.2150 cd        1 992      0.628100
     18 O25         7.3100    2.2550    5.1890 os        1 992     -0.296700
     19 C26         8.1470    3.3510    4.9000 ca        1 992      0.013100
     20 C27         7.9370    4.5350    5.6120 ca        1 992     -0.135000
     21 C28         8.8190    5.5930    5.4070 ca        1 992     -0.156000
     22 C29         9.8760    5.4890    4.4920 ca        1 992     -0.036300
     23 C30        10.0640    4.2950    3.7750 ca        1 992     -0.116600
     24 C31         9.2060    3.2150    3.9990 ca        1 992     -0.126000
     25 C32        10.7910    6.6360    4.2890 c3        1 992     -0.050800
     26 CL1         3.4070    0.9890   -1.1010 cl        1 992     -0.110400
     27 C8         -1.7620    0.7770   -0.3690 cc        1 992     -0.179200
     28 C9         -2.6980   -0.2490   -0.3390 cd        1 992     -0.118100
     29 C18        11.1450    4.1220    2.7100 c         1 992      0.911200
     30 O19        10.8880    3.3070    1.7780 o         1 992     -0.821300
     31 O20        12.2120    4.7850    2.8080 o         1 992     -0.821300
     32 H21         0.9070    1.8740    0.2370 ha        1 992      0.144000
     33 H8         -1.8870    1.7640   -0.8030 ha        1 992      0.154000
     34 H4         -0.0920   -2.8620    1.6840 ha        1 992      0.127000
     35 H11C       -3.3660   -2.4530    1.6320 h1        1 992      0.043367
     36 H12C       -2.1750   -3.4380    0.6610 h1        1 992      0.043367
     37 H13C       -3.6710   -2.7540   -0.1430 h1        1 992      0.043367
     38 H9         -3.7170   -0.2720   -0.7270 h4        1 992      0.157000
     39 H3          2.1210   -1.8140    2.1540 ha        1 992      0.138000
     40 H14         2.6300    0.3460    3.6750 ha        1 992      0.149000
     41 H11         5.7670    1.9810    0.0520 ha        1 992      0.157000
     42 HA          7.4010    2.5860    2.4150 hn        1 992      0.340700
     43 H27         7.1010    4.6170    6.3180 ha        1 992      0.132000
     44 H31         9.3870    2.2760    3.4510 ha        1 992      0.163000
     45 H28         8.6760    6.5280    5.9690 ha        1 992      0.118000
     46 H321       10.4510    7.5400    4.8480 hc        1 992      0.050033
     47 H322       10.8670    6.8750    3.1980 hc        1 992      0.050033
     48 H323       11.8220    6.3520    4.6250 hc        1 992      0.050033
@<TRIPOS>BOND
     1    1    2 ar  
     2    1    3 ar  
     3    1   27 1   
     4    2    7 ar  
     5    2   32 1   
     6    3    4 1   
     7    3    5 ar  
     8    4    8 1   
     9    4   28 1   
    10    5    6 ar  
    11    5   34 1   
    12    6    7 ar  
    13    6   39 1   
    14    7    9 1   
    15    8   35 1   
    16    8   36 1   
    17    8   37 1   
    18    9   10 ar  
    19    9   14 ar  
    20   10   11 ar  
    21   10   26 1   
    22   11   12 ar  
    23   11   41 1   
    24   12   13 ar  
    25   12   15 1   
    26   13   14 ar  
    27   13   16 1   
    28   14   40 1   
    29   15   17 1   
    30   15   42 1   
    31   16   17 2   
    32   17   18 1   
    33   18   19 1   
    34   19   20 ar  
    35   19   24 ar  
    36   20   21 ar  
    37   20   43 1   
    38   21   22 ar  
    39   21   45 1   
    40   22   23 ar  
    41   22   25 1   
    42   23   24 ar  
    43   23   29 1   
    44   24   44 1   
    45   25   46 1   
    46   25   47 1   
    47   25   48 1   
    48   27   28 2   
    49   27   33 1   
    50   28   38 1   
    51   29   30 1   
    52   29   31 1   
@<TRIPOS>SUBSTRUCTURE
     1 992         1 TEMP              0 ****  ****    0 ROOT
