@<TRIPOS>MOLECULE
molecule
   48    52     1     0     0
SMALL
bcc


@<TRIPOS>ATOM
      1 C6           0.0000     0.0000     0.0000 ca         1 992      -0.107800
      2 C21          1.3940     0.0000     0.0000 ca         1 992      -0.053000
      3 C5          -0.7020     0.0000     1.2210 ca         1 992      -0.034200
      4 N7          -2.0450     0.0010     0.9150 na         1 992      -0.077400
      5 C4           0.0040     0.0010     2.4200 ca         1 992      -0.151000
      6 C3           1.3690     0.0010     2.4140 ca         1 992      -0.087000
      7 C2           2.0770     0.0000     1.2070 cp         1 992      -0.064000
      8 C1          -3.1320     0.0020     1.8980 c3         1 992       0.042600
      9 C7           3.5620    -0.0000     1.2200 cp         1 992      -0.043000
     10 C10          4.2650    -0.9300     0.4470 ca         1 992       0.029400
     11 C11          5.6420    -0.9380     0.4520 ca         1 992      -0.117000
     12 C12          6.3390    -0.0220     1.2270 ca         1 992      -0.099200
     13 C13          5.6430     0.9160     2.0080 ca         1 992       0.131400
     14 C14          4.2470     0.9250     1.9940 ca         1 992      -0.066000
     15 N21          7.6840     0.2220     1.4440 na         1 992      -0.272300
     16 N22          6.5730     1.6710     2.6490 nc         1 992      -0.648100
     17 C23          7.7710     1.2640     2.3200 cd         1 992       0.653100
     18 O25          8.9270     1.7990     2.7790 os         1 992      -0.309700
     19 C26          8.8500     2.9010     3.5720 ca         1 992       0.046100
     20 C27          8.5050     2.7690     4.9100 ca         1 992      -0.131000
     21 C28          8.4260     3.8850     5.7220 ca         1 992      -0.157000
     22 C29          8.6870     5.1390     5.2060 ca         1 992      -0.040300
     23 C30          9.0350     5.2800     3.8610 ca         1 992      -0.104600
     24 C31          9.1200     4.1520     3.0450 ca         1 992      -0.071000
     25 C32          8.5990     6.3540     6.0940 c3         1 992      -0.028800
     26 Cl1          3.3980    -2.0790    -0.5240 cl         1 992      -0.120400
     27 C8          -1.0180     0.0070    -1.0530 cc         1 992      -0.194200
     28 C9          -2.2140     0.0010    -0.4420 cd         1 992      -0.110100
     29 C18          9.3160     6.6200     3.3050 c          1 992       0.885200
     30 O19          9.5330     6.7700     1.9840 o          1 992      -0.833300
     31 O20          9.3520     7.5870     4.0390 o          1 992      -0.833300
     32 H21          1.9400    -0.0010    -0.9360 ha         1 992       0.143000
     33 H8          -0.8410     0.0080    -2.1220 ha         1 992       0.152000
     34 H4          -0.5310     0.0020     3.3620 ha         1 992       0.121000
     35 H11C        -3.0570    -0.8830     2.5190 h1         1 992       0.044700
     36 H12C        -3.0560     0.8860     2.5190 h1         1 992       0.044700
     37 H13C        -4.0850     0.0020     1.3840 h1         1 992       0.044700
     38 H9          -3.1710    -0.0040    -0.9500 h4         1 992       0.157000
     39 H3           1.9090     0.0010     3.3530 ha         1 992       0.138000
     40 H14          3.7050     1.7110     2.5060 ha         1 992       0.156000
     41 H11          6.1820    -1.6610    -0.1480 ha         1 992       0.133000
     42 HA           8.4510    -0.2750     1.0350 hn         1 992       0.305700
     43 H27          8.2990     1.7870     5.3200 ha         1 992       0.116000
     44 H31          9.3900     4.2560     2.0010 ha         1 992       0.166000
     45 H28          8.1560     3.7760     6.7650 ha         1 992       0.115000
     46 H321         8.2790     6.0540     7.0850 hc         1 992       0.043700
     47 H322         7.8820     7.0520     5.6790 hc         1 992       0.043700
     48 H323         9.5710     6.8270     6.1560 hc         1 992       0.043700
@<TRIPOS>BOND
     1     1     2 ar
     2     1     3 ar
     3     1    27 1
     4     2     7 ar
     5     3     4 1
     6     3     5 ar
     7     4     8 1
     8     4    28 1
     9     5     6 ar
    10     6     7 ar
    11     7     9 1
    12     9    10 ar
    13     9    14 ar
    14    10    11 ar
    15    10    26 1
    16    11    12 ar
    17    12    13 ar
    18    12    15 1
    19    13    14 ar
    20    13    16 1
    21    15    17 1
    22    16    17 2
    23    17    18 1
    24    18    19 1
    25    19    20 ar
    26    19    24 ar
    27    20    21 ar
    28    21    22 ar
    29    22    23 ar
    30    22    25 1
    31    23    24 ar
    32    23    29 1
    33    27    28 2
    34    29    30 1
    35    29    31 1
    36     2    32 1
    37    27    33 1
    38     5    34 1
    39     8    35 1
    40     8    36 1
    41     8    37 1
    42    28    38 1
    43     6    39 1
    44    14    40 1
    45    11    41 1
    46    15    42 1
    47    20    43 1
    48    24    44 1
    49    21    45 1
    50    25    46 1
    51    25    47 1
    52    25    48 1
@<TRIPOS>SUBSTRUCTURE
     1 992         1 TEMP              0 ****  ****    0 ROOT
