@<TRIPOS>MOLECULE
993
   55    58     1     0     0
SMALL
bcc


@<TRIPOS>ATOM
      1 C35          0.0000     0.0000     0.0000 c3         1 993       0.219100
      2 N34          1.4620     0.0000     0.0000 nu         1 993      -0.524900
      3 C33          2.2330     0.0000     1.1130 cc         1 993       0.380400
      4 N32          1.8580     0.0020     2.3720 nd         1 993      -0.684000
      5 C31          3.0300     0.0010     3.0870 cd         1 993       0.352200
      6 C30          4.1220    -0.0010     2.2500 cc         1 993      -0.454600
      7 N29          3.5820    -0.0020     1.0090 na         1 993       0.229100
      8 C28          4.3640    -0.0050    -0.2340 c3         1 993       0.038600
      9 C25          4.6630     1.3690    -0.7100 cc         1 993      -0.142300
     10 C26          5.8170     2.1230    -0.3490 cc         1 993      -0.014600
     11 Cl3          7.0340     1.5290     0.7030 cl         1 993       0.048600
     12 C24          3.8370     2.0640    -1.5660 cd         1 993      -0.019100
     13 S23          4.4530     3.6190    -1.9310 ss         1 993      -0.100800
     14 C22          5.7990     3.3340    -0.9470 cd         1 993      -0.109700
     15 C20          6.7950     4.4140    -0.8420 c          1 993       0.622700
     16 O21          7.3850     4.8300    -1.8370 o          1 993      -0.543100
     17 N19          6.9730     4.9340     0.4540 ns         1 993      -0.071100
     18 C12          7.8120     5.9780     0.8620 ca         1 993      -0.044400
     19 C13          8.1090     7.0130    -0.0250 ca         1 993       0.105100
     20 O17          7.5930     7.0260    -1.2860 os         1 993      -0.300900
     21 C18          6.3390     7.6820    -1.4660 c3         1 993       0.244700
     22 C14          8.9460     8.0540     0.3760 ca         1 993      -0.081000
     23 C15          9.4860     8.0610     1.6620 ca         1 993      -0.057600
     24 Cl2         10.5180     9.3470     2.1550 cl         1 993      -0.002400
     25 C16          9.1880     7.0260     2.5480 ca         1 993      -0.046000
     26 C11          8.3510     5.9840     2.1480 ca         1 993      -0.186600
     27 C9           8.0620     4.9170     3.0990 c          1 993       0.613700
     28 O10          7.0770     4.9660     3.8470 o          1 993      -0.606100
     29 N7           8.9530     3.8350     3.0640 ns         1 993      -0.146400
     30 C1           8.9170     2.6430     3.8300 ca         1 993       0.364200
     31 C6           7.8830     2.5130     4.7310 ca         1 993      -0.251300
     32 C5           7.8420     1.3490     5.4880 ca         1 993      -0.030000
     33 C4           8.8210     0.3770     5.3140 ca         1 993      -0.193900
     34 Cl1          8.8000    -1.0740     6.2290 cl         1 993       0.009600
     35 C3           9.8140     0.6180     4.3780 ca         1 993       0.429200
     36 N2           9.8880     1.7370     3.6230 nb         1 993      -0.609000
     37 H351        -0.3610    -0.8840     0.5120 h1         1 993       0.007700
     38 H352        -0.3610     0.8850     0.5100 h1         1 993       0.007700
     39 H353        -0.3610    -0.0010    -1.0210 h1         1 993       0.007700
     40 HN34         1.9260    -0.0020    -0.8870 hn         1 993       0.278800
     41 H31          3.0800    -0.5020     4.0450 h4         1 993      -0.007900
     42 H30          4.9720    -0.6350     2.4710 h4         1 993       0.153000
     43 H281         5.2970    -0.5280    -0.0610 h1         1 993       0.041700
     44 H282         3.8050    -0.5280    -1.0000 h1         1 993       0.041700
     45 H24          2.7670     1.8960    -1.5410 h4         1 993       0.155000
     46 HN19         6.4290     4.5030     1.1750 hn         1 993       0.179500
     47 H181         5.7800     7.6520    -0.5390 h1         1 993      -0.006300
     48 H182         5.7770     7.1790    -2.2430 h1         1 993      -0.006300
     49 H183         6.5090     8.7120    -1.7530 h1         1 993      -0.006300
     50 H14          9.1770     8.8580    -0.3130 ha         1 993       0.129000
     51 H16          9.6060     7.0310     3.5470 ha         1 993       0.122000
     52 HN7          9.7110     3.9150     2.4150 hn         1 993       0.180500
     53 H6           7.1340     3.2870     4.8450 ha         1 993       0.181000
     54 H5           7.0490     1.1980     6.2100 ha         1 993       0.119000
     55 H3          10.5780    -0.1380     4.2420 h4         1 993      -0.015900
@<TRIPOS>BOND
     1     1     2 1   
     2     1    37 1   
     3     1    38 1   
     4     1    39 1   
     5     2     3 1   
     6     2    40 1   
     7     3     4 2   
     8     3     7 1   
     9     4     5 1   
    10     5     6 2   
    11     5    41 1   
    12     6     7 1   
    13     6    42 1   
    14     7     8 1   
    15     8     9 1   
    16     8    43 1   
    17     8    44 1   
    18     9    10 1   
    19     9    12 2   
    20    10    11 1   
    21    10    14 2   
    22    12    13 1   
    23    12    45 1   
    24    13    14 1   
    25    14    15 1   
    26    15    16 2   
    27    15    17 1   
    28    17    18 1   
    29    17    46 1   
    30    18    19 ar  
    31    18    26 ar  
    32    19    20 1   
    33    19    22 ar  
    34    20    21 1   
    35    21    47 1   
    36    21    48 1   
    37    21    49 1   
    38    22    23 ar  
    39    22    50 1   
    40    23    24 1   
    41    23    25 ar  
    42    25    26 ar  
    43    25    51 1   
    44    26    27 1   
    45    27    28 2   
    46    27    29 1   
    47    29    30 1   
    48    29    52 1   
    49    30    31 ar  
    50    30    36 ar  
    51    31    32 ar  
    52    31    53 1   
    53    32    33 ar  
    54    32    54 1   
    55    33    34 1   
    56    33    35 ar  
    57    35    36 ar  
    58    35    55 1   
@<TRIPOS>SUBSTRUCTURE
     1 993         1 TEMP              0 ****  ****    0 ROOT
