@<TRIPOS>MOLECULE
molecule
   54    57     1     0     0
SMALL
bcc


@<TRIPOS>ATOM
      1 C1           0.0000     0.0000     0.0000 ca         1 994       0.042100
      2 C2           1.3950     0.0000     0.0000 ca         1 994       0.151600
      3 C3           2.0930     0.0000     1.2080 ca         1 994      -0.228000
      4 C4           1.3970     0.0020     2.4180 ca         1 994       0.209600
      5 C5           0.0010     0.0010     2.4160 ca         1 994      -0.228000
      6 C6          -0.6970     0.0010     1.2080 ca         1 994       0.151600
      7 N9           2.1010     0.0020     3.6370 nu         1 994      -0.756300
      8 C10          3.3590     0.5210     4.0130 ca         1 994       0.917900
      9 N11          4.0640     1.1470     3.0570 nb         1 994      -0.741000
     10 C12          5.2430     1.6090     3.4930 cp         1 994       0.753500
     11 N13          5.7480     1.5050     4.7280 nb         1 994      -0.740000
     12 C14          4.9350     0.8560     5.5750 ca         1 994       0.690900
     13 N15          3.7300     0.3370     5.2910 nb         1 994      -0.767000
     14 O17         -2.0590     0.0010     1.2230 os         1 994      -0.329400
     15 C18         -2.7060     1.2720     1.2280 c3         1 994       0.132200
     16 O22         -0.6820    -0.0000    -1.1810 os         1 994      -0.333900
     17 C23         -1.0060    -1.2710    -1.7400 c3         1 994       0.138700
     18 O27          2.0880    -0.0010    -1.1730 os         1 994      -0.329400
     19 C28          3.5120    -0.0020    -1.0850 c3         1 994       0.132200
     20 C32          6.0610     2.3000     2.5180 cp         1 994      -0.313800
     21 C33          5.9240     3.6740     2.3610 ca         1 994      -0.025000
     22 C34          6.7060     4.3430     1.4260 ca         1 994      -0.290300
     23 C35          7.6030     3.5980     0.6790 ca         1 994       0.443200
     24 N36          7.7640     2.2620     0.8020 nb         1 994      -0.696000
     25 C37          6.9880     1.6360     1.7220 ca         1 994       0.709200
     26 N41          7.1380     0.2440     1.8670 nu         1 994      -0.791300
     27 C42          7.5090    -0.7760     0.9660 ca         1 994       0.188600
     28 C43          8.1710    -1.9120     1.4310 ca         1 994      -0.165000
     29 C44          8.5370    -2.9210     0.5400 ca         1 994      -0.102500
     30 C45          8.2400    -2.7940    -0.8170 ca         1 994      -0.156000
     31 C46          7.5770    -1.6590    -1.2830 ca         1 994      -0.102500
     32 C47          7.2120    -0.6500    -0.3920 ca         1 994      -0.165000
     33 H3           3.1760     0.0000     1.2060 ha         1 994       0.157500
     34 H5          -0.5420     0.0030     3.3530 ha         1 994       0.157500
     35 HN9          1.6150    -0.4560     4.3830 hn         1 994       0.447800
     36 H14          5.2870     0.7380     6.5930 h5         1 994       0.058100
     37 H181        -2.0020     2.0370     0.9240 h1         1 994       0.042367
     38 H182        -3.5410     1.2550     0.5380 h1         1 994       0.042367
     39 H183        -3.0670     1.4890     2.2260 h1         1 994       0.042367
     40 H231        -2.0760    -1.3360    -1.8930 h1         1 994       0.035367
     41 H232        -0.6900    -2.0550    -1.0620 h1         1 994       0.035367
     42 H233        -0.4970    -1.3880    -2.6890 h1         1 994       0.035367
     43 H281         3.8430     0.9020    -0.5880 h1         1 994       0.042367
     44 H282         3.9350    -0.0420    -2.0820 h1         1 994       0.042367
     45 H283         3.8380    -0.8660    -0.5190 h1         1 994       0.042367
     46 H33          5.2100     4.2210     2.9650 ha         1 994       0.144000
     47 H34          6.6160     5.4140     1.2870 ha         1 994       0.149000
     48 H35          8.2130     4.1180    -0.0500 h4         1 994       0.023100
     49 HN41         6.9450    -0.0870     2.7920 hn         1 994       0.430800
     50 H43          8.4020    -2.0100     2.4850 ha         1 994       0.136000
     51 H44          9.0510    -3.8030     0.9020 ha         1 994       0.132500
     52 H45          8.5240    -3.5780    -1.5090 ha         1 994       0.131000
     53 H46          7.3470    -1.5600    -2.3370 ha         1 994       0.132500
     54 H47          6.6970     0.2320    -0.7540 ha         1 994       0.136000
@<TRIPOS>BOND
     1    15    14 1
     2    14     6 1
     3    16     1 1
     4    16    17 1
     5     6     1 ar
     6     6     5 ar
     7     1     2 ar
     8     5     4 ar
     9     2    18 1
    10     2     3 ar
    11     4     7 1
    12     4     3 ar
    13    18    19 1
    14     7     8 1
    15     8    13 ar
    16     8     9 ar
    17    13    12 ar
    18     9    10 ar
    19    12    11 ar
    20    10    11 ar
    21    10    20 1
    22    21    20 ar
    23    21    22 ar
    24    20    25 ar
    25    22    23 ar
    26    25    26 1
    27    25    24 ar
    28    26    27 1
    29    23    24 ar
    30    27    28 ar
    31    27    32 ar
    32    28    29 ar
    33    32    31 ar
    34    29    30 ar
    35    31    30 ar
    36     3    33 1
    37     5    34 1
    38     7    35 1
    39    12    36 1
    40    15    37 1
    41    15    38 1
    42    15    39 1
    43    17    40 1
    44    17    41 1
    45    17    42 1
    46    19    43 1
    47    19    44 1
    48    19    45 1
    49    21    46 1
    50    22    47 1
    51    23    48 1
    52    26    49 1
    53    28    50 1
    54    29    51 1
    55    30    52 1
    56    31    53 1
    57    32    54 1
@<TRIPOS>SUBSTRUCTURE
     1 994         1 TEMP              0 ****  ****    0 ROOT
