@<TRIPOS>MOLECULE
994
   54    57     1     0     0
SMALL
bcc


@<TRIPOS>ATOM
      1 C1           0.0000     0.0000     0.0000 ca         1 994       0.046100
      2 C2           1.3950     0.0000     0.0000 ca         1 994       0.159600
      3 C3           2.0930     0.0000     1.2080 ca         1 994      -0.210500
      4 C4           1.3970     0.0020     2.4180 ca         1 994       0.049600
      5 C5           0.0010     0.0010     2.4160 ca         1 994      -0.210500
      6 C6          -0.6970     0.0010     1.2080 ca         1 994       0.159600
      7 N9           2.1010     0.0020     3.6370 nu         1 994      -0.284300
      8 C10          3.3590     0.5210     4.0130 ca         1 994       0.722900
      9 N11          4.0640     1.1470     3.0570 nb         1 994      -0.691000
     10 C12          5.2430     1.6090     3.4930 cp         1 994       0.735500
     11 N13          5.7480     1.5050     4.7280 nb         1 994      -0.689000
     12 C14          4.9350     0.8560     5.5750 ca         1 994       0.698900
     13 N15          3.7300     0.3370     5.2910 nb         1 994      -0.710000
     14 O17         -2.0590     0.0010     1.2230 os         1 994      -0.312400
     15 C18         -2.7060     1.2720     1.2280 c3         1 994       0.248200
     16 O22         -0.6820    -0.0000    -1.1810 os         1 994      -0.317900
     17 C23         -1.0060    -1.2710    -1.7400 c3         1 994       0.255700
     18 O27          2.0880    -0.0010    -1.1730 os         1 994      -0.312400
     19 C28          3.5120    -0.0020    -1.0850 c3         1 994       0.248200
     20 C32          6.0610     2.3000     2.5180 cp         1 994      -0.338800
     21 C33          5.9240     3.6740     2.3610 ca         1 994       0.008000
     22 C34          6.7060     4.3430     1.4260 ca         1 994      -0.264300
     23 C35          7.6030     3.5980     0.6790 ca         1 994       0.448200
     24 N36          7.7640     2.2620     0.8020 nb         1 994      -0.629000
     25 C37          6.9880     1.6360     1.7220 ca         1 994       0.537200
     26 N41          7.1380     0.2440     1.8670 nu         1 994      -0.346300
     27 C42          7.5090    -0.7760     0.9660 ca         1 994       0.037600
     28 C43          8.1710    -1.9120     1.4310 ca         1 994      -0.139000
     29 C44          8.5370    -2.9210     0.5400 ca         1 994      -0.071500
     30 C45          8.2400    -2.7940    -0.8170 ca         1 994      -0.129000
     31 C46          7.5770    -1.6590    -1.2830 ca         1 994      -0.071500
     32 C47          7.2120    -0.6500    -0.3920 ca         1 994      -0.139000
     33 H3           3.1760     0.0000     1.2060 ha         1 994       0.138500
     34 H5          -0.5420     0.0030     3.3530 ha         1 994       0.138500
     35 HN9          1.6150    -0.4560     4.3830 hn         1 994       0.280800
     36 H14          5.2870     0.7380     6.5930 h5         1 994      -0.007900
     37 H181        -2.0020     2.0370     0.9240 h1         1 994      -0.002467
     38 H182        -3.5410     1.2550     0.5380 h1         1 994      -0.002467
     39 H183        -3.0670     1.4890     2.2260 h1         1 994      -0.002467
     40 H231        -2.0760    -1.3360    -1.8930 h1         1 994      -0.008633
     41 H232        -0.6900    -2.0550    -1.0620 h1         1 994      -0.008633
     42 H233        -0.4970    -1.3880    -2.6890 h1         1 994      -0.008633
     43 H281         3.8430     0.9020    -0.5880 h1         1 994      -0.002467
     44 H282         3.9350    -0.0420    -2.0820 h1         1 994      -0.002467
     45 H283         3.8380    -0.8660    -0.5190 h1         1 994      -0.002467
     46 H33          5.2100     4.2210     2.9650 ha         1 994       0.107000
     47 H34          6.6160     5.4140     1.2870 ha         1 994       0.123000
     48 H35          8.2130     4.1180    -0.0500 h4         1 994      -0.026900
     49 HN41         6.9450    -0.0870     2.7920 hn         1 994       0.267800
     50 H43          8.4020    -2.0100     2.4850 ha         1 994       0.112000
     51 H44          9.0510    -3.8030     0.9020 ha         1 994       0.102000
     52 H45          8.5240    -3.5780    -1.5090 ha         1 994       0.104000
     53 H46          7.3470    -1.5600    -2.3370 ha         1 994       0.102000
     54 H47          6.6970     0.2320    -0.7540 ha         1 994       0.112000
@<TRIPOS>BOND
     1     1     2 ar  
     2     1     6 ar  
     3     1    16 1   
     4     2     3 ar  
     5     2    18 1   
     6     3     4 ar  
     7     3    33 1   
     8     4     5 ar  
     9     4     7 1   
    10     5     6 ar  
    11     5    34 1   
    12     6    14 1   
    13     7     8 1   
    14     7    35 1   
    15     8     9 ar  
    16     8    13 ar  
    17     9    10 ar  
    18    10    11 ar  
    19    10    20 1   
    20    11    12 ar  
    21    12    13 ar  
    22    12    36 1   
    23    14    15 1   
    24    15    37 1   
    25    15    38 1   
    26    15    39 1   
    27    16    17 1   
    28    17    40 1   
    29    17    41 1   
    30    17    42 1   
    31    18    19 1   
    32    19    43 1   
    33    19    44 1   
    34    19    45 1   
    35    20    21 ar  
    36    20    25 ar  
    37    21    22 ar  
    38    21    46 1   
    39    22    23 ar  
    40    22    47 1   
    41    23    24 ar  
    42    23    48 1   
    43    24    25 ar  
    44    25    26 1   
    45    26    27 1   
    46    26    49 1   
    47    27    28 ar  
    48    27    32 ar  
    49    28    29 ar  
    50    28    50 1   
    51    29    30 ar  
    52    29    51 1   
    53    30    31 ar  
    54    30    52 1   
    55    31    32 ar  
    56    31    53 1   
    57    32    54 1   
@<TRIPOS>SUBSTRUCTURE
     1 994         1 TEMP              0 ****  ****    0 ROOT
