@<TRIPOS>MOLECULE
molecule
   68    68     1     0     0
SMALL
bcc


@<TRIPOS>ATOM
      1 CX           0.0000     0.0000     0.0000 c          1 995       0.504600
      2 CY           1.5080     0.0000     0.0000 c3         1 995       0.043700
      3 CZ          -0.7320    -1.2230     0.3300 cc         1 995       0.344900
      4 OX          -0.6060     1.0150    -0.2720 o          1 995      -0.477100
      5 S1          -2.4950    -1.5020     0.4060 ss         1 995      -0.084300
      6 C2          -2.4380    -3.1790     0.8560 cc         1 995      -0.140400
      7 C3          -1.0900    -3.3990     0.9150 cd         1 995       0.320200
      8 N1          -0.2630    -2.4270     0.6470 nd         1 995      -0.692000
      9 C6           2.0180     0.0000     1.4430 c3         1 995      -0.082400
     10 C7           3.5420    -0.1260     1.4440 c3         1 995      -0.084400
     11 N2           1.9960     1.1950    -0.6930 ns         1 995      -0.590900
     12 C8           2.1250     1.1920    -2.0340 c          1 995       0.656100
     13 C9           2.5180     2.4550    -2.7550 c3         1 995       0.055700
     14 C10          1.2960     3.3660    -2.8920 c3         1 995      -0.082700
     15 C11          1.7170     4.6930    -3.5260 c3         1 995      -0.090600
     16 C12          0.2480     2.6870    -3.7750 c3         1 995      -0.090600
     17 N3           3.0250     2.1180    -4.0880 ns         1 995      -0.578900
     18 C13          3.8790     2.9520    -4.7150 c          1 995       0.660100
     19 C14          4.4010     2.6050    -6.0850 c3         1 995      -0.154400
     20 C15          5.3430     3.7090    -6.5670 c3         1 995      -0.062400
     21 C16          5.8730     3.3580    -7.9580 c3         1 995      -0.080700
     22 C17          4.7150     3.3490    -8.9580 c3         1 995      -0.088600
     23 C18          6.9090     4.3980    -8.3870 c3         1 995      -0.088600
     24 O2           4.2260     3.9810    -4.1760 o          1 995      -0.621100
     25 O3           1.9240     0.1730    -2.6600 o          1 995      -0.588100
     26 C19          4.0520    -0.1250     2.8860 c3         1 995       0.166800
     27 N4           5.5170    -0.2470     2.8880 n7         1 995      -0.875200
     28 C20          5.9390    -0.2390     4.2940 c3         1 995       0.575900
     29 N5           7.3270    -0.7120     4.3910 nz         1 995      -0.866100
     30 N6           5.8490     1.1280     4.8260 nz         1 995      -0.866100
     31 HY           1.8680    -0.8850    -0.5100 h1         1 995       0.121700
     32 H2          -3.2530    -3.8670     1.0440 h4         1 995       0.216000
     33 H3          -0.7100    -4.3790     1.1760 h4         1 995       0.045100
     34 H61          1.7320     0.9260     1.9270 hc         1 995       0.068700
     35 H62          1.5860    -0.8360     1.9790 hc         1 995       0.068700
     36 H71          3.8280    -1.0520     0.9610 hc         1 995       0.079200
     37 H72          3.9740     0.7100     0.9070 hc         1 995       0.079200
     38 HN2          2.2190     2.0190    -0.1710 hn         1 995       0.312500
     39 H9           3.2900     2.9660    -2.1930 h1         1 995       0.068700
     40 H10          0.8750     3.5530    -1.9110 hc         1 995       0.048700
     41 H111         2.6830     4.9890    -3.1360 hc         1 995       0.047700
     42 H112         0.9840     5.4540    -3.2910 hc         1 995       0.047700
     43 H113         1.7830     4.5740    -4.6010 hc         1 995       0.047700
     44 H121        -0.7000     3.2000    -3.6710 hc         1 995       0.047700
     45 H122         0.5670     2.7260    -4.8100 hc         1 995       0.047700
     46 H123         0.1340     1.6530    -3.4720 hc         1 995       0.047700
     47 HN3          2.7830     1.2420    -4.5080 hn         1 995       0.340500
     48 H141         4.9390     1.6660    -6.0390 hc         1 995       0.066700
     49 H142         3.5710     2.5120    -6.7750 hc         1 995       0.066700
     50 H151         4.8050     4.6480    -6.6120 hc         1 995       0.056700
     51 H152         6.1730     3.8020    -5.8770 hc         1 995       0.056700
     52 H16          6.3350     2.3780    -7.9310 hc         1 995       0.044700
     53 H171         5.1050     3.4570    -9.9630 hc         1 995       0.037533
     54 H172         4.1760     2.4120    -8.8780 hc         1 995       0.037533
     55 H173         4.0440     4.1710    -8.7400 hc         1 995       0.037533
     56 H181         7.3050     4.1340    -9.3600 hc         1 995       0.037533
     57 H182         7.7160     4.4240    -7.6650 hc         1 995       0.037533
     58 H183         6.4410     5.3740    -8.4400 hc         1 995       0.037533
     59 H191         3.6200    -0.9600     3.4230 h1         1 995       0.056700
     60 H192         3.7670     0.8020     3.3700 h1         1 995       0.056700
     61 HN4          6.0610     0.2330     2.1990 hn         1 995       0.465800
     62 H20          5.2940    -0.8930     4.8680 hx         1 995       0.192700
     63 HN51         7.9370    -0.0480     3.9550 hn         1 995       0.488967
     64 HN52         7.4120    -1.5960     3.9300 hn         1 995       0.488967
     65 HN61         6.1690     1.7770     4.1350 hn         1 995       0.488967
     66 HN62         4.8980     1.3330     5.0610 hn         1 995       0.488967
     67 H53          7.5720    -0.8330     5.3540 hn         1 995       0.488967
     68 H63          6.3920     1.1960     5.6640 hn         1 995       0.488967
@<TRIPOS>BOND
     1     1     2 1
     2     1     3 1
     3     1     4 2
     4     2     9 1
     5     2    11 1
     6     2    31 1
     7     3     5 1
     8     3     8 2
     9     5     6 1
    10     6     7 2
    11     6    32 1
    12     7     8 1
    13     7    33 1
    14     9    10 1
    15     9    34 1
    16     9    35 1
    17    10    26 1
    18    10    36 1
    19    10    37 1
    20    11    12 1
    21    11    38 1
    22    12    13 1
    23    12    25 2
    24    13    14 1
    25    13    17 1
    26    13    39 1
    27    14    15 1
    28    14    16 1
    29    14    40 1
    30    15    41 1
    31    15    42 1
    32    15    43 1
    33    16    44 1
    34    16    45 1
    35    16    46 1
    36    17    18 1
    37    17    47 1
    38    18    19 1
    39    18    24 2
    40    19    20 1
    41    19    48 1
    42    19    49 1
    43    20    21 1
    44    20    50 1
    45    20    51 1
    46    21    22 1
    47    21    23 1
    48    21    52 1
    49    22    53 1
    50    22    54 1
    51    22    55 1
    52    23    56 1
    53    23    57 1
    54    23    58 1
    55    26    27 1
    56    26    59 1
    57    26    60 1
    58    27    28 1
    59    27    61 1
    60    28    29 1
    61    28    30 1
    62    28    62 1
    63    29    63 1
    64    29    64 1
    65    30    65 1
    66    30    66 1
    67    67    29 1
    68    68    30 1
@<TRIPOS>SUBSTRUCTURE
     1 995         1 TEMP              0 ****  ****    0 ROOT
