@<TRIPOS>MOLECULE
molecule
   72    74     1     0     0
SMALL
bcc


@<TRIPOS>ATOM
      1 O21          0.0000     0.0000     0.0000 o          1 996      -0.614100
      2 C6           1.2130     0.0000     0.0000 c          1 996       0.655100
      3 C5           1.9670     0.0000     1.3050 c3         1 996      -0.171100
      4 N7           1.8860    -0.0040    -1.1670 ns         1 996      -0.580900
      5 C8           1.1540    -0.0100    -2.4360 c3         1 996       0.115700
      6 C13          0.2750    -1.2590    -2.5120 c3         1 996      -0.059100
      7 C22          1.1480    -2.4870    -2.5510 ca         1 996      -0.080300
      8 C23          1.5250    -3.1050    -1.3730 ca         1 996      -0.126000
      9 C24          2.3270    -4.2300    -1.4090 ca         1 996      -0.128500
     10 C25          2.7520    -4.7380    -2.6220 ca         1 996      -0.132000
     11 C26          2.3750    -4.1200    -3.8000 ca         1 996      -0.128500
     12 C27          1.5680    -2.9980    -3.7650 ca         1 996      -0.126000
     13 C9           0.2730     1.2390    -2.5220 c3         1 996       0.120100
     14 O1          -0.4420     1.2330    -3.7590 oh         1 996      -0.613800
     15 C10          1.1530     2.4890    -2.4460 c3         1 996       0.146800
     16 N11          0.3010     3.6850    -2.4080 n7         1 996      -0.813200
     17 C12          1.1130     4.9070    -2.3360 c3         1 996       0.247800
     18 C17          1.4420     5.2140    -0.8960 cc         1 996      -0.294600
     19 C16          1.3690     6.5020    -0.3380 cc         1 996       0.343600
     20 C14          0.9570     7.7250    -1.1190 c3         1 996      -0.083700
     21 C2           1.0580     7.3970    -2.6140 c3         1 996      -0.066000
     22 C3           2.5310     7.2480    -3.0020 c3         1 996      -0.085100
     23 C4           0.4300     8.5290    -3.4280 c3         1 996      -0.085100
     24 C15          0.3210     6.0900    -2.9080 c3         1 996      -0.072400
     25 N20          1.7120     6.4230     0.9150 nd         1 996      -0.509800
     26 N19          2.0180     5.0830     1.2000 na         1 996       0.059400
     27 C18          1.8430     4.3640     0.0690 cd         1 996      -0.094300
     28 C28          2.4510     4.5560     2.4970 c3         1 996       0.089300
     29 C29          3.6830     5.3270     2.9750 c3         1 996      -0.087000
     30 C30          3.3330     6.8090     3.1190 c3         1 996      -0.080433
     31 C31          4.1350     4.7760     4.3290 c3         1 996      -0.080433
     32 C32          4.8120     5.1650     1.9560 c3         1 996      -0.080433
     33 H1           2.9660     0.3870     1.1450 hc         1 996       0.060033
     34 H2           1.4480     0.6250     2.0220 hc         1 996       0.060033
     35 H3           2.0290    -1.0120     1.6860 hc         1 996       0.060033
     36 H4           2.8870     0.0050    -1.1680 hn         1 996       0.317500
     37 H5           1.8580    -0.0130    -3.2600 h1         1 996       0.069700
     38 H6          -0.3330    -1.2190    -3.4080 hc         1 996       0.076700
     39 H7          -0.3690    -1.3010    -1.6410 hc         1 996       0.076700
     40 H8           1.1910    -2.7070    -0.4220 ha         1 996       0.132000
     41 H9           2.6220    -4.7140    -0.4860 ha         1 996       0.128000
     42 H10          3.3830    -5.6180    -2.6500 ha         1 996       0.128000
     43 H11          2.7060    -4.5190    -4.7510 ha         1 996       0.128000
     44 H12          1.2720    -2.5140    -4.6880 ha         1 996       0.132000
     45 H13         -0.4310     1.2420    -1.6980 h1         1 996       0.089700
     46 H14         -1.3690     1.2370    -3.5870 ho         1 996       0.411000
     47 H15          1.7600     2.4490    -1.5500 h1         1 996       0.036200
     48 H16          1.7960     2.5310    -3.3160 h1         1 996       0.036200
     49 H17         -0.2710     3.7120    -3.2290 hn         1 996       0.361800
     50 H19          2.0290     4.7770    -2.8980 h1         1 996       0.031700
     51 H20          1.6180     8.5490    -0.8810 hc         1 996       0.059700
     52 H21         -0.0650     7.9870    -0.8720 hc         1 996       0.059700
     53 H22          2.9950     8.2260    -3.0420 hc         1 996       0.036867
     54 H23          3.0390     6.6370    -2.2650 hc         1 996       0.036867
     55 H24          2.6020     6.7740    -3.9740 hc         1 996       0.036867
     56 H25         -0.6300     8.5820    -3.2140 hc         1 996       0.036867
     57 H26          0.9000     9.4680    -3.1620 hc         1 996       0.036867
     58 H27          0.5760     8.3380    -4.4840 hc         1 996       0.036867
     59 H28         -0.6390     6.1260    -2.4070 hc         1 996       0.055200
     60 H29          0.2660     5.9690    -3.9830 hc         1 996       0.055200
     61 H30          1.9980     3.2980    -0.0420 h4         1 996       0.167000
     62 H31          2.6980     3.5060     2.3950 h1         1 996       0.056700
     63 H32          1.6510     4.6700     3.2180 h1         1 996       0.056700
     64 H33          3.5190     7.3170     2.1800 hc         1 996       0.038811
     65 H34          2.2870     6.9090     3.3820 hc         1 996       0.038811
     66 H35          3.9450     7.2500     3.8960 hc         1 996       0.038811
     67 H36          3.3290     4.8720     5.0460 hc         1 996       0.038811
     68 H37          4.4010     3.7310     4.2230 hc         1 996       0.038811
     69 H38          4.9960     5.3340     4.6770 hc         1 996       0.038811
     70 H39          4.9170     4.1180     1.6960 hc         1 996       0.038811
     71 H40          5.7400     5.5240     2.3850 hc         1 996       0.038811
     72 H41          4.5810     5.7370     1.0660 hc         1 996       0.038811
@<TRIPOS>BOND
     1    32    29 1
     2    10     9 ar
     3    10    11 ar
     4     9     8 ar
     5    11    12 ar
     6    29    30 1
     7    29    28 1
     8    29    31 1
     9     8     7 ar
    10    28    26 1
    11    12     7 ar
    12     7     6 1
    13     6     5 1
    14    14    13 1
    15    26    27 1
    16    26    25 1
    17     5    13 1
    18     5     4 1
    19    27    18 2
    20    25    19 2
    21    13    15 1
    22     4     2 1
    23     1     2 2
    24    18    19 1
    25    18    17 1
    26     2     3 1
    27    15    16 1
    28    19    20 1
    29    16    17 1
    30    17    24 1
    31    20    21 1
    32    24    21 1
    33    21    22 1
    34    21    23 1
    35     3    33 1
    36     3    34 1
    37     3    35 1
    38     4    36 1
    39     5    37 1
    40     6    38 1
    41     6    39 1
    42     8    40 1
    43     9    41 1
    44    10    42 1
    45    11    43 1
    46    12    44 1
    47    13    45 1
    48    14    46 1
    49    15    47 1
    50    15    48 1
    51    16    49 1
    52    17    50 1
    53    20    51 1
    54    20    52 1
    55    22    53 1
    56    22    54 1
    57    22    55 1
    58    23    56 1
    59    23    57 1
    60    23    58 1
    61    24    59 1
    62    24    60 1
    63    27    61 1
    64    28    62 1
    65    28    63 1
    66    30    64 1
    67    30    65 1
    68    30    66 1
    69    31    67 1
    70    31    68 1
    71    31    69 1
    72    32    70 1
    73    32    71 1
    74    32    72 1
@<TRIPOS>SUBSTRUCTURE
     1 996         1 TEMP              0 ****  ****    0 ROOT
