@<TRIPOS>MOLECULE
996
   72    74     1     0     0
SMALL
bcc


@<TRIPOS>ATOM
      1 O21          0.0000     0.0000     0.0000 o          1 996      -0.651100
      2 C6           1.2130     0.0000     0.0000 c          1 996       0.570100
      3 C5           1.9670     0.0000     1.3050 c3         1 996      -0.069100
      4 N7           1.8860    -0.0040    -1.1670 ns         1 996      -0.184900
      5 C8           1.1540    -0.0100    -2.4360 c3         1 996       0.020700
      6 C13          0.2750    -1.2590    -2.5120 c3         1 996      -0.012100
      7 C22          1.1480    -2.4870    -2.5510 ca         1 996      -0.088300
      8 C23          1.5250    -3.1050    -1.3730 ca         1 996      -0.104000
      9 C24          2.3270    -4.2300    -1.4090 ca         1 996      -0.100000
     10 C25          2.7520    -4.7380    -2.6220 ca         1 996      -0.106000
     11 C26          2.3750    -4.1200    -3.8000 ca         1 996      -0.100000
     12 C27          1.5680    -2.9980    -3.7650 ca         1 996      -0.104000
     13 C9           0.2730     1.2390    -2.5220 c3         1 996       0.150100
     14 O1          -0.4420     1.2330    -3.7590 oh         1 996      -0.588800
     15 C10          1.1530     2.4890    -2.4460 c3         1 996       0.112800
     16 N11          0.3010     3.6850    -2.4080 n7         1 996      -0.578200
     17 C12          1.1130     4.9070    -2.3360 c3         1 996       0.215800
     18 C17          1.4420     5.2140    -0.8960 cc         1 996      -0.308600
     19 C16          1.3690     6.5020    -0.3380 cc         1 996       0.369600
     20 C14          0.9570     7.7250    -1.1190 c3         1 996      -0.023700
     21 C2           1.0580     7.3970    -2.6140 c3         1 996      -0.068000
     22 C3           2.5310     7.2480    -3.0020 c3         1 996       0.000400
     23 C4           0.4300     8.5290    -3.4280 c3         1 996       0.000400
     24 C15          0.3210     6.0900    -2.9080 c3         1 996      -0.027400
     25 N20          1.7120     6.4230     0.9150 nd         1 996      -0.639800
     26 N19          2.0180     5.0830     1.2000 na         1 996       0.479400
     27 C18          1.8430     4.3640     0.0690 cd         1 996      -0.237300
     28 C28          2.4510     4.5560     2.4970 c3         1 996       0.000300
     29 C29          3.6830     5.3270     2.9750 c3         1 996      -0.084000
     30 C30          3.3330     6.8090     3.1190 c3         1 996       0.001567
     31 C31          4.1350     4.7760     4.3290 c3         1 996       0.001567
     32 C32          4.8120     5.1650     1.9560 c3         1 996       0.001567
     33 H1           2.9660     0.3870     1.1450 hc         1 996       0.022367
     34 H2           1.4480     0.6250     2.0220 hc         1 996       0.022367
     35 H3           2.0290    -1.0120     1.6860 hc         1 996       0.022367
     36 H4           2.8870     0.0050    -1.1680 hn         1 996       0.175500
     37 H5           1.8580    -0.0130    -3.2600 h1         1 996       0.042700
     38 H6          -0.3330    -1.2190    -3.4080 hc         1 996       0.051700
     39 H7          -0.3690    -1.3010    -1.6410 hc         1 996       0.051700
     40 H8           1.1910    -2.7070    -0.4220 ha         1 996       0.109500
     41 H9           2.6220    -4.7140    -0.4860 ha         1 996       0.101500
     42 H10          3.3830    -5.6180    -2.6500 ha         1 996       0.102000
     43 H11          2.7060    -4.5190    -4.7510 ha         1 996       0.101500
     44 H12          1.2720    -2.5140    -4.6880 ha         1 996       0.109500
     45 H13         -0.4310     1.2420    -1.6980 h1         1 996       0.061700
     46 H14         -1.3690     1.2370    -3.5870 ho         1 996       0.399000
     47 H15          1.7600     2.4490    -1.5500 h1         1 996       0.014700
     48 H16          1.7960     2.5310    -3.3160 h1         1 996       0.014700
     49 H17         -0.2710     3.7120    -3.2290 hn         1 996       0.263800
     50 H19          2.0290     4.7770    -2.8980 h1         1 996       0.017700
     51 H20          1.6180     8.5490    -0.8810 hc         1 996       0.028200
     52 H21         -0.0650     7.9870    -0.8720 hc         1 996       0.028200
     53 H22          2.9950     8.2260    -3.0420 hc         1 996       0.007533
     54 H23          3.0390     6.6370    -2.2650 hc         1 996       0.007533
     55 H24          2.6020     6.7740    -3.9740 hc         1 996       0.007533
     56 H25         -0.6300     8.5820    -3.2140 hc         1 996       0.007533
     57 H26          0.9000     9.4680    -3.1620 hc         1 996       0.007533
     58 H27          0.5760     8.3380    -4.4840 hc         1 996       0.007533
     59 H28         -0.6390     6.1260    -2.4070 hc         1 996       0.028700
     60 H29          0.2660     5.9690    -3.9830 hc         1 996       0.028700
     61 H30          1.9980     3.2980    -0.0420 h4         1 996       0.148000
     62 H31          2.6980     3.5060     2.3950 h1         1 996       0.030200
     63 H32          1.6510     4.6700     3.2180 h1         1 996       0.030200
     64 H33          3.5190     7.3170     2.1800 hc         1 996       0.010811
     65 H34          2.2870     6.9090     3.3820 hc         1 996       0.010811
     66 H35          3.9450     7.2500     3.8960 hc         1 996       0.010811
     67 H36          3.3290     4.8720     5.0460 hc         1 996       0.010811
     68 H37          4.4010     3.7310     4.2230 hc         1 996       0.010811
     69 H38          4.9960     5.3340     4.6770 hc         1 996       0.010811
     70 H39          4.9170     4.1180     1.6960 hc         1 996       0.010811
     71 H40          5.7400     5.5240     2.3850 hc         1 996       0.010811
     72 H41          4.5810     5.7370     1.0660 hc         1 996       0.010811
@<TRIPOS>BOND
     1     1     2 2   
     2     2     3 1   
     3     2     4 1   
     4     3    33 1   
     5     3    34 1   
     6     3    35 1   
     7     4     5 1   
     8     4    36 1   
     9     5     6 1   
    10     5    13 1   
    11     5    37 1   
    12     6     7 1   
    13     6    38 1   
    14     6    39 1   
    15     7     8 ar  
    16     7    12 ar  
    17     8     9 ar  
    18     8    40 1   
    19     9    10 ar  
    20     9    41 1   
    21    10    11 ar  
    22    10    42 1   
    23    11    12 ar  
    24    11    43 1   
    25    12    44 1   
    26    13    14 1   
    27    13    15 1   
    28    13    45 1   
    29    14    46 1   
    30    15    16 1   
    31    15    47 1   
    32    15    48 1   
    33    16    17 1   
    34    16    49 1   
    35    17    18 1   
    36    17    24 1   
    37    17    50 1   
    38    18    19 1   
    39    18    27 2   
    40    19    20 1   
    41    19    25 2   
    42    20    21 1   
    43    20    51 1   
    44    20    52 1   
    45    21    22 1   
    46    21    23 1   
    47    21    24 1   
    48    22    53 1   
    49    22    54 1   
    50    22    55 1   
    51    23    56 1   
    52    23    57 1   
    53    23    58 1   
    54    24    59 1   
    55    24    60 1   
    56    25    26 1   
    57    26    27 1   
    58    26    28 1   
    59    27    61 1   
    60    28    29 1   
    61    28    62 1   
    62    28    63 1   
    63    29    30 1   
    64    29    31 1   
    65    29    32 1   
    66    30    64 1   
    67    30    65 1   
    68    30    66 1   
    69    31    67 1   
    70    31    68 1   
    71    31    69 1   
    72    32    70 1   
    73    32    71 1   
    74    32    72 1   
@<TRIPOS>SUBSTRUCTURE
     1 996         1 TEMP              0 ****  ****    0 ROOT
