@<TRIPOS>MOLECULE
molecule
   81    84     1     0     0
SMALL
bcc


@<TRIPOS>ATOM
      1 C1           0.0000     0.0000     0.0000 ca         1 997      -0.106300
      2 C2           1.5060     0.0000     0.0000 c3         1 997       0.167000
      3 C3          -0.7420     0.3530     1.1040 ca         1 997      -0.073300
      4 C4          -0.6460    -0.3680    -1.1750 ca         1 997      -0.109000
      5 N5           1.9890    -1.1950    -0.6970 ns         1 997      -0.577900
      6 C6           2.0420     0.0000     1.4300 c3         1 997      -0.093400
      7 C7          -0.1100     0.7560     2.4100 c3         1 997      -0.037100
      8 C8          -2.1300     0.3410     1.0320 ca         1 997      -0.138000
      9 C9          -2.0240    -0.3810    -1.2430 ca         1 997      -0.132000
     10 C10          2.1060    -1.1910    -2.0400 c          1 997       0.651100
     11 C11          1.3560     1.1320     2.2030 c3         1 997      -0.078400
     12 C12         -2.7690    -0.0240    -0.1340 ca         1 997      -0.124000
     13 C13          2.6030    -2.4200    -2.7560 c3         1 997       0.038700
     14 O14          1.8110    -0.1980    -2.6710 o          1 997      -0.590100
     15 N15          2.6580    -2.1780    -4.2050 n          1 997      -0.478800
     16 C16          4.0360    -2.7530    -2.2930 c3         1 997      -0.088400
     17 C17          1.6050    -1.8780    -4.9910 c          1 997       0.691100
     18 C18          4.0560    -2.3120    -4.6540 c3         1 997       0.061000
     19 C19          4.7250    -3.2280    -3.6010 c3         1 997       0.102100
     20 C20          1.8240    -1.5230    -6.4400 c3         1 997       0.063700
     21 O21          0.4820    -1.8930    -4.5340 o          1 997      -0.604100
     22 N22          0.6970    -2.0130    -7.2390 ns         1 997      -0.578900
     23 C23          1.9270    -0.0030    -6.5820 c3         1 997      -0.071000
     24 C24          0.8650    -2.2770    -8.5500 c          1 997       0.661100
     25 C25          0.5990     0.6390    -6.1760 c3         1 997      -0.090100
     26 C26          3.0450     0.5190    -5.6770 c3         1 997      -0.090100
     27 C27          2.2410     0.3530    -8.0380 c3         1 997      -0.090100
     28 C28         -0.2940    -2.7810    -9.3710 c3         1 997       0.079500
     29 O29          1.9470    -2.1090    -9.0680 o          1 997      -0.586100
     30 N30          0.1430    -2.9900   -10.7570 n7         1 997      -0.767200
     31 C31         -0.7940    -4.1040    -8.7880 c3         1 997      -0.130100
     32 CNM         -1.0550    -2.8780   -11.5990 c3         1 997       0.133100
     33 OQ2          6.1350    -3.0040    -3.5480 os         1 997      -0.284900
     34 C            6.6900    -3.7640    -4.5290 ca         1 997       0.112100
     35 C5           5.8780    -4.4700    -5.4030 ca         1 997      -0.191500
     36 C14          6.4450    -5.2420    -6.3990 ca         1 997      -0.089500
     37 C15          7.8200    -5.3110    -6.5250 ca         1 997      -0.159000
     38 C21          8.6310    -4.6070    -5.6540 ca         1 997      -0.089500
     39 C22          8.0700    -3.8290    -4.6610 ca         1 997      -0.191500
     40 H43          1.8610     0.8860    -0.5120 h1         1 997       0.089700
     41 H35         -0.0630    -0.6480    -2.0440 ha         1 997       0.165000
     42 HN5          2.2100    -2.0220    -0.1780 hn         1 997       0.313500
     43 HS1          3.1090     0.1850     1.4070 hc         1 997       0.049200
     44 HS2          1.7970    -0.9460     1.8990 hc         1 997       0.049200
     45 HW1         -0.6370     1.6210     2.7950 hc         1 997       0.052700
     46 HW2         -0.1580    -0.0850     3.0910 hc         1 997       0.052700
     47 H36         -2.7140     0.6200     1.9000 ha         1 997       0.126000
     48 H34         -2.5200    -0.6690    -2.1620 ha         1 997       0.134000
     49 HV1          1.4070     2.0420     1.6170 hc         1 997       0.050700
     50 HV2          1.8320     1.2380     3.1710 hc         1 997       0.050700
     51 H33         -3.8510    -0.0330    -0.1810 ha         1 997       0.126000
     52 HPA          1.9490    -3.2600    -2.5520 h1         1 997       0.079700
     53 HP1          4.5260    -1.8690    -1.9030 hc         1 997       0.072200
     54 HP2          4.0240    -3.5490    -1.5580 hc         1 997       0.072200
     55 HR1          4.0930    -2.7750    -5.6330 h1         1 997       0.073200
     56 HR2          4.5390    -1.3420    -4.6700 h1         1 997       0.073200
     57 HQ1          4.4980    -4.2690    -3.7980 h1         1 997       0.079700
     58 HTA          2.7410    -1.9820    -6.7890 h1         1 997       0.081700
     59 HN22        -0.1890    -2.1790    -6.8040 hn         1 997       0.331500
     60 HT11         0.6770     1.7160    -6.2610 hc         1 997       0.043700
     61 HT12         0.3680     0.3740    -5.1510 hc         1 997       0.043700
     62 HT13        -0.1890     0.2820    -6.8270 hc         1 997       0.043700
     63 HT21         3.1400     1.5910    -5.8030 hc         1 997       0.043700
     64 HT22         3.9790     0.0410    -5.9440 hc         1 997       0.043700
     65 HT23         2.8070     0.2960    -4.6440 hc         1 997       0.043700
     66 HT31         1.3570     0.2000    -8.6450 hc         1 997       0.043700
     67 HT32         2.5460     1.3900    -8.0980 hc         1 997       0.043700
     68 HT33         3.0410    -0.2810    -8.4000 hc         1 997       0.043700
     69 HAA         -1.0950    -2.0520    -9.3510 h1         1 997       0.077700
     70 H30          0.5310    -3.9080   -10.8500 hn         1 997       0.360800
     71 HB1         -1.3980    -4.6190    -9.5260 hc         1 997       0.045033
     72 HB2          0.0530    -4.7230    -8.5190 hc         1 997       0.045033
     73 HB3         -1.3920    -3.9070    -7.9060 hc         1 997       0.045033
     74 HM1         -1.7450    -3.6770   -11.3540 h1         1 997       0.032700
     75 HM2         -0.7720    -2.9530   -12.6420 h1         1 997       0.032700
     76 HM3         -1.5330    -1.9220   -11.4220 h1         1 997       0.032700
     77 HD1          4.8000    -4.4170    -5.3050 ha         1 997       0.144000
     78 HE1          5.8110    -5.7950    -7.0820 ha         1 997       0.134500
     79 HZ           8.2620    -5.9190    -7.3050 ha         1 997       0.133000
     80 HE2          9.7080    -4.6600    -5.7560 ha         1 997       0.134500
     81 HD2          8.7060    -3.2770    -3.9790 ha         1 997       0.144000
@<TRIPOS>BOND
     1     1     2 1
     2     1     3 ar
     3     1     4 ar
     4     2     5 1
     5     2     6 1
     6     2    40 1
     7     3     7 1
     8     3     8 ar
     9     4     9 ar
    10     4    41 1
    11     5    10 1
    12     5    42 1
    13     6    11 1
    14     6    43 1
    15     6    44 1
    16     7    11 1
    17     7    45 1
    18     7    46 1
    19     8    12 ar
    20     8    47 1
    21     9    12 ar
    22     9    48 1
    23    10    13 1
    24    10    14 2
    25    11    49 1
    26    11    50 1
    27    12    51 1
    28    13    15 1
    29    13    16 1
    30    13    52 1
    31    15    17 1
    32    15    18 1
    33    16    19 1
    34    16    53 1
    35    16    54 1
    36    17    20 1
    37    17    21 2
    38    18    19 1
    39    18    55 1
    40    18    56 1
    41    19    33 1
    42    19    57 1
    43    20    22 1
    44    20    23 1
    45    20    58 1
    46    22    24 1
    47    22    59 1
    48    23    25 1
    49    23    26 1
    50    23    27 1
    51    24    28 1
    52    24    29 2
    53    25    60 1
    54    25    61 1
    55    25    62 1
    56    26    63 1
    57    26    64 1
    58    26    65 1
    59    27    66 1
    60    27    67 1
    61    27    68 1
    62    28    30 1
    63    28    31 1
    64    28    69 1
    65    30    32 1
    66    30    70 1
    67    31    71 1
    68    31    72 1
    69    31    73 1
    70    32    74 1
    71    32    75 1
    72    32    76 1
    73    33    34 1
    74    34    35 ar
    75    34    39 ar
    76    35    36 ar
    77    35    77 1
    78    36    37 ar
    79    36    78 1
    80    37    38 ar
    81    37    79 1
    82    38    39 ar
    83    38    80 1
    84    39    81 1
@<TRIPOS>SUBSTRUCTURE
     1 997         1 TEMP              0 ****  ****    0 ROOT
