@<TRIPOS>MOLECULE
998
   70    72     1     0     0
SMALL
bcc


@<TRIPOS>ATOM
      1 C1           0.0000     0.0000     0.0000 ca         1 998      -0.111300
      2 C2           1.5060     0.0000     0.0000 c3         1 998       0.082000
      3 C3          -0.7410     0.3510     1.1040 ca         1 998      -0.075300
      4 C4          -0.6460    -0.3680    -1.1740 ca         1 998      -0.107000
      5 N5           1.9900    -1.1940    -0.6980 ns         1 998      -0.183900
      6 C6           2.0430     0.0000     1.4300 c3         1 998      -0.040400
      7 C7          -0.1090     0.7540     2.4110 c3         1 998       0.031900
      8 C8          -2.1290     0.3390     1.0340 ca         1 998      -0.112000
      9 C9          -2.0230    -0.3830    -1.2410 ca         1 998      -0.099000
     10 C10          2.1060    -1.1890    -2.0410 c          1 998       0.567100
     11 C11          1.3570     1.1320     2.2040 c3         1 998      -0.022400
     12 C12         -2.7680    -0.0270    -0.1320 ca         1 998      -0.098000
     13 C13          2.6040    -2.4180    -2.7580 c3         1 998      -0.041300
     14 O14          1.8100    -0.1970    -2.6710 o          1 998      -0.632100
     15 N15          2.6580    -2.1750    -4.2070 n          1 998      -0.128800
     16 C16          4.0380    -2.7510    -2.2950 c3         1 998      -0.030400
     17 C17          1.6040    -1.8750    -4.9930 c          1 998       0.617100
     18 C18          4.0550    -2.3080    -4.6570 c3         1 998       0.025000
     19 C19          4.7250    -3.2240    -3.6040 c3         1 998      -0.029400
     20 C20          1.8210    -1.5290    -6.4430 c3         1 998      -0.046300
     21 O21          0.4820    -1.8860    -4.5330 o          1 998      -0.647100
     22 N22          0.6780    -1.9940    -7.2330 ns         1 998      -0.184900
     23 C23          1.9580    -0.0120    -6.5890 c3         1 998      -0.063000
     24 C24          0.8310    -2.2640    -8.5450 c          1 998       0.572100
     25 C25          0.6810     0.6660    -6.0910 c3         1 998      -0.020433
     26 C26          3.1500     0.4750    -5.7620 c3         1 998      -0.020433
     27 C27          2.1830     0.3400    -8.0610 c3         1 998      -0.020433
     28 C28         -0.3450    -2.7420    -9.3560 c3         1 998       0.035500
     29 O29          1.9130    -2.1220    -9.0710 o          1 998      -0.631100
     30 N30          0.0770    -2.9650   -10.7460 n7         1 998      -0.537200
     31 C31         -0.8720    -4.0520    -8.7680 c3         1 998      -0.031100
     32 CNM         -1.1250    -2.8270   -11.5800 c3         1 998       0.162100
     33 H43          1.8610     0.8860    -0.5120 h1         1 998       0.063700
     34 H35         -0.0630    -0.6470    -2.0430 ha         1 998       0.150000
     35 H44          2.2170    -2.0200    -0.1790 hn         1 998       0.174500
     36 HS1          1.7990    -0.9460     1.8980 hc         1 998       0.020700
     37 HS2          3.1100     0.1860     1.4060 hc         1 998       0.020700
     38 HW1         -0.1550    -0.0870     3.0910 hc         1 998       0.021700
     39 HW2         -0.6360     1.6180     2.7970 hc         1 998       0.021700
     40 H36         -2.7130     0.6170     1.9030 ha         1 998       0.103000
     41 H34         -2.5190    -0.6710    -2.1600 ha         1 998       0.108000
     42 HV1          1.8330     1.2370     3.1710 hc         1 998       0.021700
     43 HV2          1.4070     2.0410     1.6170 hc         1 998       0.021700
     44 H33         -3.8500    -0.0370    -0.1790 ha         1 998       0.100000
     45 HPA          1.9510    -3.2580    -2.5530 h1         1 998       0.048700
     46 HP1          4.5270    -1.8670    -1.9050 hc         1 998       0.027700
     47 HP2          4.0260    -3.5470    -1.5610 hc         1 998       0.027700
     48 HR1          4.0920    -2.7720    -5.6360 h1         1 998       0.035200
     49 HR2          4.5380    -1.3390    -4.6740 h1         1 998       0.035200
     50 HQ1          4.5030    -4.2660    -3.8010 hc         1 998       0.028200
     51 HQ2          5.7930    -3.0480    -3.5630 hc         1 998       0.028200
     52 HTA          2.7250    -2.0090    -6.7980 h1         1 998       0.062700
     53 H53         -0.2050    -2.1490    -6.7900 hn         1 998       0.196500
     54 HT11         0.5250     0.4210    -5.0470 hc         1 998       0.017589
     55 HT12        -0.1640     0.3180    -6.6730 hc         1 998       0.017589
     56 HT13         0.7760     1.7400    -6.1990 hc         1 998       0.017589
     57 HT21         4.0490    -0.0330    -6.0900 hc         1 998       0.017589
     58 HT22         2.9750     0.2580    -4.7150 hc         1 998       0.017589
     59 HT23         3.2700     1.5430    -5.8950 hc         1 998       0.017589
     60 HT31         2.5030     1.3720    -8.1410 hc         1 998       0.017589
     61 HT32         1.2590     0.2050    -8.6100 hc         1 998       0.017589
     62 HT33         2.9460    -0.3080    -8.4750 hc         1 998       0.017589
     63 HAA         -1.1290    -1.9950    -9.3320 h1         1 998       0.048700
     64 H67          0.4430    -3.8920   -10.8390 hn         1 998       0.259800
     65 HB1         -1.4120    -3.8460    -7.8520 hc         1 998       0.013367
     66 HB2         -0.0410    -4.7130    -8.5560 hc         1 998       0.013367
     67 HB3         -1.5370    -4.5260    -9.4800 hc         1 998       0.013367
     68 HM1         -1.8190    -3.6260   -11.3490 h1         1 998       0.000033
     69 HM2         -0.8470    -2.8810   -12.6260 h1         1 998       0.000033
     70 HM3         -1.5950    -1.8710   -11.3810 h1         1 998       0.000033
@<TRIPOS>BOND
     1     1     2 1   
     2     1     3 ar  
     3     1     4 ar  
     4     2     5 1   
     5     2     6 1   
     6     2    33 1   
     7     3     7 1   
     8     3     8 ar  
     9     4     9 ar  
    10     4    34 1   
    11     5    10 1   
    12     5    35 1   
    13     6    11 1   
    14     6    36 1   
    15     6    37 1   
    16     7    11 1   
    17     7    38 1   
    18     7    39 1   
    19     8    12 ar  
    20     8    40 1   
    21     9    12 ar  
    22     9    41 1   
    23    10    13 1   
    24    10    14 2   
    25    11    42 1   
    26    11    43 1   
    27    12    44 1   
    28    13    15 1   
    29    13    16 1   
    30    13    45 1   
    31    15    17 1   
    32    15    18 1   
    33    16    19 1   
    34    16    46 1   
    35    16    47 1   
    36    17    20 1   
    37    17    21 2   
    38    18    19 1   
    39    18    48 1   
    40    18    49 1   
    41    19    50 1   
    42    19    51 1   
    43    20    22 1   
    44    20    23 1   
    45    20    52 1   
    46    22    24 1   
    47    22    53 1   
    48    23    25 1   
    49    23    26 1   
    50    23    27 1   
    51    24    28 1   
    52    24    29 2   
    53    25    54 1   
    54    25    55 1   
    55    25    56 1   
    56    26    57 1   
    57    26    58 1   
    58    26    59 1   
    59    27    60 1   
    60    27    61 1   
    61    27    62 1   
    62    28    30 1   
    63    28    31 1   
    64    28    63 1   
    65    30    32 1   
    66    30    64 1   
    67    31    65 1   
    68    31    66 1   
    69    31    67 1   
    70    32    68 1   
    71    32    69 1   
    72    32    70 1   
@<TRIPOS>SUBSTRUCTURE
     1 998         1 TEMP              0 ****  ****    0 ROOT
