@<TRIPOS>MOLECULE
molecule
   72    76     1     0     0
SMALL
bcc


@<TRIPOS>ATOM
      1 C15          0.0000     0.0000     0.0000 c3         1 99A      -0.048800
      2 C8           1.5070     0.0000     0.0000 ca         1 99A      -0.015300
      3 C9           2.1970     0.0000     1.1940 ca         1 99A      -0.125000
      4 C10          3.5920    -0.0010     1.1930 ca         1 99A      -0.202600
      5 C14          4.3330    -0.0020     2.4750 c          1 99A       0.504700
      6 O2           5.5480     0.0250     2.4750 o          1 99A      -0.425100
      7 N2           3.6600    -0.0320     3.6420 nz         1 99A      -0.678400
      8 C11          4.2890    -0.0010    -0.0160 ca         1 99A       0.010700
      9 C13          5.7960    -0.0010    -0.0160 c3         1 99A      -0.061800
     10 C12          3.6000     0.0000    -1.2090 ca         1 99A      -0.114000
     11 C7           2.2050    -0.0060    -1.2080 ca         1 99A      -0.062600
     12 C6           1.4640    -0.0110    -2.4900 c          1 99A       0.643700
     13 O1           0.2490    -0.0450    -2.4900 o          1 99A      -0.592100
     14 N1           2.1380     0.0200    -3.6580 ns         1 99A      -0.612900
     15 C5           1.4050     0.0130    -4.9260 c3         1 99A       0.108700
     16 C30          1.8090    -1.2170    -5.7420 c3         1 99A      -0.136400
     17 C4           1.7340     1.2860    -5.7110 c3         1 99A      -0.136400
     18 C1           3.2170     1.2520    -6.1160 c3         1 99A       0.175000
     19 C2           4.0390     0.8650    -4.8650 c3         1 99A      -0.124900
     20 C3           4.0860    -0.6780    -4.8850 c3         1 99A      -0.124900
     21 C29          3.2870    -1.0830    -6.1460 c3         1 99A       0.175000
     22 N3           3.3940     0.1010    -7.0410 nh         1 99A      -0.657300
     23 C16          2.4010     0.0830    -8.0070 ca         1 99A       0.625200
     24 C17          2.0170    -1.1310    -8.5750 ca         1 99A      -0.294300
     25 C18          1.0360    -1.1450    -9.5280 ca         1 99A      -0.012000
     26 N5           1.8270     1.2200    -8.3740 nb         1 99A      -0.739000
     27 C28          0.8800     1.2510    -9.2880 ca         1 99A       0.465200
     28 C19          0.4490     0.0740    -9.9030 ca         1 99A      -0.294900
     29 C20         -0.6120     0.1100   -10.9270 c          1 99A       0.674700
     30 O3          -0.9850    -0.9210   -11.4530 o          1 99A      -0.604100
     31 N4          -1.1700     1.2850   -11.2790 ns         1 99A      -0.579900
     32 C21         -2.2230     1.3210   -12.2960 c3         1 99A       0.162300
     33 C22         -2.6730     2.7440   -12.5040 ca         1 99A      -0.124300
     34 C23         -2.0510     3.5340   -13.4530 ca         1 99A      -0.112500
     35 C24         -2.4640     4.8400   -13.6430 ca         1 99A      -0.130000
     36 C25         -3.4980     5.3550   -12.8850 ca         1 99A      -0.116000
     37 C26         -4.1210     4.5650   -11.9380 ca         1 99A      -0.130000
     38 C27         -3.7110     3.2590   -11.7490 ca         1 99A      -0.112500
     39 H151        -0.3610    -0.8940    -0.4930 hc         1 99A       0.070033
     40 H152        -0.3610     0.0200     1.0210 hc         1 99A       0.070033
     41 H153        -0.3610     0.8740    -0.5280 hc         1 99A       0.070033
     42 H9           1.6560     0.0130     2.1320 ha         1 99A       0.114000
     43 H21N         3.0870    -0.8520     3.6760 hn         1 99A       0.477133
     44 H22N         3.0820     0.7820     3.7160 hn         1 99A       0.477133
     45 H131         6.1580    -0.8730     0.5150 hc         1 99A       0.069033
     46 H132         6.1580    -0.0240    -1.0370 hc         1 99A       0.069033
     47 H133         6.1580     0.8950     0.4740 hc         1 99A       0.069033
     48 H12          4.1420    -0.0020    -2.1470 ha         1 99A       0.160000
     49 H1           3.1380     0.0230    -3.6580 hn         1 99A       0.374500
     50 H301         1.1940    -1.2810    -6.6320 hc         1 99A       0.076450
     51 H302         1.6760    -2.1100    -5.1440 hc         1 99A       0.076450
     52 H41C         1.5470     2.1540    -5.0910 hc         1 99A       0.076450
     53 H42C         1.1160     1.3350    -6.6000 hc         1 99A       0.076450
     54 H29          3.6740    -1.9840    -6.6060 h1         1 99A       0.100700
     55 HA           3.5480     2.1860    -6.5530 h1         1 99A       0.100700
     56 H21C         3.5460     1.2160    -3.9660 hc         1 99A       0.063450
     57 H22C         5.0400     1.2730    -4.9310 hc         1 99A       0.063450
     58 H31C         3.6160    -1.0810    -3.9950 hc         1 99A       0.063450
     59 H32C         5.1100    -1.0230    -4.9600 hc         1 99A       0.063450
     60 H17          2.4910    -2.0550    -8.2640 ha         1 99A       0.149000
     61 H18          0.7220    -2.0750    -9.9860 ha         1 99A       0.171000
     62 H28          0.4330     2.1970    -9.5670 h4         1 99A       0.026100
     63 H4          -0.8430     2.1370   -10.8670 hn         1 99A       0.315500
     64 H211        -1.8390     0.9240   -13.2280 h1         1 99A       0.062700
     65 H212        -3.0630     0.7210   -11.9670 h1         1 99A       0.062700
     66 H23         -1.2410     3.1300   -14.0470 ha         1 99A       0.135000
     67 H27         -4.2000     2.6400   -11.0070 ha         1 99A       0.135000
     68 H24         -1.9760     5.4590   -14.3870 ha         1 99A       0.135000
     69 H25         -3.8210     6.3780   -13.0330 ha         1 99A       0.134000
     70 H26         -4.9330     4.9680   -11.3450 ha         1 99A       0.135000
     71 H5           0.3400    -0.0220    -4.7260 h1         1 99A       0.101700
     72 H231         4.3110    -0.0490     4.4020 hn         1 99A       0.477133
@<TRIPOS>BOND
     1     1     2 1
     2     2     3 ar
     3     2    11 ar
     4     3     4 ar
     5     4     5 1
     6     4     8 ar
     7     5     6 2
     8     5     7 1
     9     8     9 1
    10     8    10 ar
    11    10    11 ar
    12    11    12 1
    13    12    13 2
    14    12    14 1
    15    14    15 1
    16    15    16 1
    17    15    17 1
    18    16    21 1
    19    17    18 1
    20    18    19 1
    21    18    22 1
    22    19    20 1
    23    20    21 1
    24    21    22 1
    25    22    23 1
    26    23    24 ar
    27    23    26 ar
    28    24    25 ar
    29    25    28 ar
    30    26    27 ar
    31    27    28 ar
    32    28    29 1
    33    29    30 2
    34    29    31 1
    35    31    32 1
    36    32    33 1
    37    33    34 ar
    38    33    38 ar
    39    34    35 ar
    40    35    36 ar
    41    36    37 ar
    42    37    38 ar
    43     1    39 1
    44     1    40 1
    45     1    41 1
    46     3    42 1
    47     7    43 1
    48     7    44 1
    49     9    45 1
    50     9    46 1
    51     9    47 1
    52    10    48 1
    53    14    49 1
    54    16    50 1
    55    16    51 1
    56    17    52 1
    57    17    53 1
    58    21    54 1
    59    18    55 1
    60    19    56 1
    61    19    57 1
    62    20    58 1
    63    20    59 1
    64    24    60 1
    65    25    61 1
    66    27    62 1
    67    31    63 1
    68    32    64 1
    69    32    65 1
    70    34    66 1
    71    38    67 1
    72    35    68 1
    73    36    69 1
    74    37    70 1
    75    15    71 1
    76    72     7 1
@<TRIPOS>SUBSTRUCTURE
     1 99A         1 TEMP              0 ****  ****    0 ROOT
