@<TRIPOS>MOLECULE
molecule
   75    79     1     0     0
SMALL
bcc


@<TRIPOS>ATOM
      1 C1           1.4650     0.0000     0.0000 c3         1 99B       0.216500
      2 N1           0.0000     0.0000     0.0000 nu         1 99B      -0.767600
      3 O1          -0.5680     2.6270    -5.3310 o          1 99B      -0.589100
      4 C2           1.9750     0.0000     1.4430 c3         1 99B      -0.094400
      5 N2           1.3480     2.5220    -4.2140 ns         1 99B      -0.614900
      6 O2           6.2490     6.9900    -9.4230 o          1 99B      -0.527100
      7 C3           1.5700     1.3080     2.1270 c3         1 99B      -0.095100
      8 N3           4.8450     3.3790    -4.4690 nh         1 99B      -0.660300
      9 O3          -2.2380    -0.6160     0.9480 o          1 99B      -0.490100
     10 C4           1.9750    -1.2490    -0.7210 c3         1 99B      -0.117100
     11 N4           5.4940     3.2500    -6.7140 nb         1 99B      -0.745000
     12 C5          -0.6950     0.5080    -1.0910 ca         1 99B       0.289600
     13 N5          -4.1540    -0.4820    -0.1680 nz         1 99B      -0.671400
     14 C6          -0.0080     1.1270    -2.1270 ca         1 99B      -0.196000
     15 C7          -0.7080     1.6340    -3.2190 ca         1 99B      -0.021600
     16 C8           0.0250     2.2930    -4.3250 c          1 99B       0.643700
     17 C9           2.0730     3.1740    -5.3080 c3         1 99B       0.107700
     18 C10          3.1710     2.2380    -5.8200 c3         1 99B      -0.135400
     19 C11          4.2210     2.0510    -4.7130 c3         1 99B       0.176500
     20 C12          3.7790     4.1380    -3.7630 c3         1 99B       0.176500
     21 C13          2.6970     4.4770    -4.8000 c3         1 99B      -0.135400
     22 C14          3.1790     3.1150    -2.7710 c3         1 99B      -0.125400
     23 C15          3.4700     1.7360    -3.3980 c3         1 99B      -0.125400
     24 C16          5.1850     3.9930    -5.6610 ca         1 99B       0.633200
     25 C17          5.8230     3.7900    -7.8690 ca         1 99B       0.484200
     26 C18          5.8560     5.1800    -8.0180 ca         1 99B      -0.314900
     27 C19          6.2230     5.7840    -9.3040 c          1 99B       0.617700
     28 C20          6.5680     4.9040   -10.4780 cx         1 99B      -0.263700
     29 C21          7.5640     5.4500   -11.5020 cx         1 99B      -0.102900
     30 C22          6.0800     5.3460   -11.8590 cx         1 99B      -0.102900
     31 C23          5.1970     5.3860    -5.7350 ca         1 99B      -0.307300
     32 C24          5.5330     5.9920    -6.9150 ca         1 99B      -0.014000
     33 C25         -2.0920     0.3940    -1.1510 ca         1 99B      -0.293600
     34 C26         -2.8270    -0.2660    -0.0560 c          1 99B       0.513700
     35 C27         -2.7850     0.9060    -2.2500 ca         1 99B      -0.098000
     36 C28         -2.0990     1.5230    -3.2720 ca         1 99B      -0.061300
     37 C29         -2.8520     2.0750    -4.4570 c3         1 99B      -0.041800
     38 H1           1.8260     0.8850    -0.5100 h1         1 99B       0.062700
     39 HN1         -0.5000    -0.4000     0.7690 hn         1 99B       0.476800
     40 H2           1.5430    -0.8360     1.9790 hc         1 99B       0.062700
     41 H2A          3.0540    -0.0890     1.4450 hc         1 99B       0.062700
     42 HN2          1.8310     2.2740    -3.3730 hn         1 99B       0.373500
     43 H3           1.9690     2.1460     1.5680 hc         1 99B       0.041700
     44 H3A          1.9650     1.3250     3.1350 hc         1 99B       0.041700
     45 H3B          0.4890     1.3780     2.1600 hc         1 99B       0.041700
     46 H4           3.0530    -1.1980    -0.8130 hc         1 99B       0.051700
     47 H4A          1.5310    -1.3030    -1.7080 hc         1 99B       0.051700
     48 H4B          1.7020    -2.1310    -0.1540 hc         1 99B       0.051700
     49 HN5         -4.4700    -1.0240     0.6120 hn         1 99B       0.475467
     50 HN5A        -4.3410    -0.9770    -1.0170 hn         1 99B       0.475467
     51 H6           1.0750     1.1510    -2.1200 ha         1 99B       0.161000
     52 H9           1.3840     3.3960    -6.1140 h1         1 99B       0.102700
     53 H10          2.7390     1.2780    -6.0760 hc         1 99B       0.076700
     54 H10A         3.6390     2.6710    -6.6950 hc         1 99B       0.076700
     55 H11          4.9530     1.2920    -4.9610 h1         1 99B       0.099700
     56 H12          4.1640     5.0190    -3.2630 h1         1 99B       0.099700
     57 H13          1.9320     5.0910    -4.3400 hc         1 99B       0.076700
     58 H13A         3.1430     5.0130    -5.6290 hc         1 99B       0.076700
     59 H14          3.6620     3.1990    -1.8050 hc         1 99B       0.062950
     60 H14A         2.1110     3.2670    -2.6730 hc         1 99B       0.062950
     61 H15          2.5450     1.2140    -3.6090 hc         1 99B       0.062950
     62 H15A         4.0960     1.1460    -2.7390 hc         1 99B       0.062950
     63 H17          6.0720     3.1530    -8.7090 h4         1 99B       0.037100
     64 H20          6.6080     3.8310   -10.3340 hc         1 99B       0.084700
     65 H21          7.9300     6.4520   -11.3100 hc         1 99B       0.086200
     66 H21A         8.2090     4.7140   -11.9650 hc         1 99B       0.086200
     67 H22          5.5390     6.2840   -11.8860 hc         1 99B       0.086200
     68 H22A         5.8190     4.5460   -12.5410 hc         1 99B       0.086200
     69 H23          5.0970     5.9770    -4.8330 ha         1 99B       0.149000
     70 H24          5.6720     7.0660    -6.8880 ha         1 99B       0.165000
     71 H27         -3.8640     0.8210    -2.2980 ha         1 99B       0.112000
     72 H29         -2.6450     3.1330    -4.5550 hc         1 99B       0.064700
     73 H29A        -3.9150     1.9260    -4.3100 hc         1 99B       0.064700
     74 H29B        -2.5360     1.5600    -5.3560 hc         1 99B       0.064700
     75 H53         -4.6330     0.3960    -0.1940 hn         1 99B       0.475467
@<TRIPOS>BOND
     1     1     2 1
     2     1     4 1
     3     1    10 1
     4     2    12 1
     5     3    16 2
     6     4     7 1
     7     5    16 1
     8     5    17 1
     9     6    27 2
    10     8    19 1
    11     8    20 1
    12     8    24 1
    13     9    34 2
    14    11    24 ar
    15    11    25 ar
    16    12    14 ar
    17    12    33 ar
    18    13    34 1
    19    14    15 ar
    20    15    16 1
    21    15    36 ar
    22    17    18 1
    23    17    21 1
    24    18    19 1
    25    19    23 1
    26    20    21 1
    27    20    22 1
    28    22    23 1
    29    24    31 ar
    30    25    26 ar
    31    26    27 1
    32    26    32 ar
    33    27    28 1
    34    28    29 1
    35    28    30 1
    36    29    30 1
    37    31    32 ar
    38    33    34 1
    39    33    35 ar
    40    35    36 ar
    41    36    37 1
    42     1    38 1
    43     2    39 1
    44     4    40 1
    45     4    41 1
    46     5    42 1
    47     7    43 1
    48     7    44 1
    49     7    45 1
    50    10    46 1
    51    10    47 1
    52    10    48 1
    53    13    49 1
    54    13    50 1
    55    14    51 1
    56    17    52 1
    57    18    53 1
    58    18    54 1
    59    19    55 1
    60    20    56 1
    61    21    57 1
    62    21    58 1
    63    22    59 1
    64    22    60 1
    65    23    61 1
    66    23    62 1
    67    25    63 1
    68    28    64 1
    69    29    65 1
    70    29    66 1
    71    30    67 1
    72    30    68 1
    73    31    69 1
    74    32    70 1
    75    35    71 1
    76    37    72 1
    77    37    73 1
    78    37    74 1
    79    75    13 1
@<TRIPOS>SUBSTRUCTURE
     1 99B         1 TEMP              0 ****  ****    0 ROOT
