@<TRIPOS>MOLECULE
molecule
   49    51     1     0     0
SMALL
bcc


@<TRIPOS>ATOM
      1 O1           0.0000     0.0000     0.0000 oh         1 99E      -0.486100
      2 C11          2.8230     0.0000     0.0000 ca         1 99E      -0.116300
      3 C21          2.0250    -0.4110     3.6060 ca         1 99E      -0.143000
      4 C7          -0.4840    -1.8440    -5.6360 c3         1 99E      -0.019100
      5 C8           0.6190    -1.6350    -6.6750 c3         1 99E      -0.082100
      6 C10         -2.3660    -5.2970    -5.6770 c3         1 99E      -0.189100
      7 C1           1.0480    -1.2880    -2.9780 c          1 99E       0.707700
      8 C2           0.6370    -2.6120    -3.4630 cc         1 99E      -0.201900
      9 N3           0.8590    -3.8110    -2.8190 na         1 99E      -0.137100
     10 C4           0.3470    -4.8090    -3.5540 cc         1 99E      -0.061600
     11 C5          -0.2200    -4.2650    -4.6950 cd         1 99E      -0.262600
     12 C6          -0.0320    -2.8640    -4.6230 cd         1 99E      -0.028300
     13 C9          -0.8910    -5.0000    -5.7720 c          1 99E       0.611700
     14 C12          0.3800    -6.2730    -3.1980 c3         1 99E      -0.028800
     15 N13          1.7040    -1.1740    -1.8060 ns         1 99E      -0.569900
     16 O15          0.7980    -0.2950    -3.6340 o          1 99E      -0.607100
     17 O16         -0.2600    -5.3690    -6.7400 o          1 99E      -0.521100
     18 C3           2.1140     0.1470    -1.3220 c3         1 99E       0.170300
     19 C13          4.1880     0.0000     0.0510 ca         1 99E       0.126100
     20 C14          4.8590    -0.1350     1.2690 ca         1 99E      -0.179000
     21 C15          4.1710    -0.2690     2.4360 ca         1 99E      -0.090000
     22 C16          2.7660    -0.2730     2.4190 ca         1 99E      -0.032000
     23 C17          2.0830    -0.1310     1.1860 ca         1 99E      -0.025000
     24 C18          0.6740    -0.1310     1.1730 ca         1 99E       0.139100
     25 C19         -0.0110    -0.2610     2.3480 ca         1 99E      -0.217000
     26 C20          0.6640    -0.3950     3.5580 ca         1 99E      -0.094000
     27 H1          -0.8570     0.3560     0.1670 ho         1 99E       0.422000
     28 H2           2.5340    -0.5160     4.5560 ha         1 99E       0.136000
     29 H3          -0.6890    -0.9070    -5.1330 hc         1 99E       0.058200
     30 H4          -1.3830    -2.1940    -6.1290 hc         1 99E       0.058200
     31 H5           0.8400    -0.5770    -6.7590 hc         1 99E       0.037367
     32 H6           1.5110    -2.1670    -6.3680 hc         1 99E       0.037367
     33 H7           0.2860    -2.0110    -7.6350 hc         1 99E       0.037367
     34 H8          -2.8710    -4.9030    -6.5500 hc         1 99E       0.059367
     35 H9          -2.7710    -4.8340    -4.7860 hc         1 99E       0.059367
     36 H10         -2.5160    -6.3690    -5.6270 hc         1 99E       0.059367
     37 H11          1.3290    -3.9200    -1.9420 hn         1 99E       0.295700
     38 H12          1.0750    -6.4310    -2.3820 hc         1 99E       0.052367
     39 H13          0.6990    -6.8470    -4.0600 hc         1 99E       0.052367
     40 H14         -0.6100    -6.5940    -2.8970 hc         1 99E       0.052367
     41 H15          1.9310    -1.9930    -1.2770 hn         1 99E       0.303500
     42 H16          1.2380     0.7730    -1.1950 h1         1 99E       0.075200
     43 H17          2.7820     0.6040    -2.0420 h1         1 99E       0.075200
     44 H18          5.9420    -0.1330     1.2850 ha         1 99E       0.137000
     45 H19          4.7050    -0.3730     3.3730 ha         1 99E       0.140000
     46 H20         -1.0950    -0.2510     2.3390 ha         1 99E       0.134000
     47 H21          0.0970    -0.4960     4.4760 ha         1 99E       0.133000
     48 H22          5.6190     0.7280    -0.9550 ho         1 99E       0.423000
     49 O22          4.9020     0.1330    -1.0980 oh         1 99E      -0.501100
@<TRIPOS>BOND
     1    49    19 1
     2    20    19 ar
     3    20    21 ar
     4    19     2 ar
     5    21    22 ar
     6     2    18 1
     7     2    23 ar
     8    22    23 ar
     9    22     3 ar
    10    18    15 1
    11    23    24 ar
    12     3    26 ar
    13    16     7 2
    14    24    25 ar
    15    24     1 1
    16    26    25 ar
    17    15     7 1
    18     7     8 1
    19     8     9 1
    20     8    12 2
    21     9    10 1
    22     4    12 1
    23     4     5 1
    24    12    11 1
    25    10    11 2
    26    10    14 1
    27    11    13 1
    28     6    13 1
    29    13    17 2
    30     1    27 1
    31     3    28 1
    32     4    29 1
    33     4    30 1
    34     5    31 1
    35     5    32 1
    36     5    33 1
    37     6    34 1
    38     6    35 1
    39     6    36 1
    40     9    37 1
    41    14    38 1
    42    14    39 1
    43    14    40 1
    44    15    41 1
    45    18    42 1
    46    18    43 1
    47    20    44 1
    48    21    45 1
    49    25    46 1
    50    26    47 1
    51    49    48 1
@<TRIPOS>SUBSTRUCTURE
     1 99E         1 TEMP              0 ****  ****    0 ROOT
