@<TRIPOS>MOLECULE
99J
   66    70     1     0     0
SMALL
bcc


@<TRIPOS>ATOM
      1 C10          0.0000     0.0000     0.0000 ca         1 99J      -0.099000
      2 N12         -2.0940     0.0030     1.2030 nu         1 99J      -0.266300
      3 C13         -2.7870    -0.6540     0.2070 ca         1 99J       0.745900
      4 C15         -2.7260    -2.0250    -1.6490 ca         1 99J       0.606200
      5 C17         -5.1280    -2.4890    -2.6390 c          1 99J       0.678100
      6 C21         -7.8800    -1.3940    -3.9540 c2         1 99J      -0.183200
      7 C22         -8.1390    -1.8460    -5.1560 c2         1 99J      -0.130000
      8 C24         -4.8050    -1.1650    -0.7740 ca         1 99J       0.416800
      9 C26         -7.1660    -0.6150    -0.3670 ca         1 99J       0.352800
     10 C28         -9.4190    -0.1850    -0.1100 ca         1 99J       0.365600
     11 N02          6.1510    -0.5630    -0.1210 n3         1 99J      -0.543600
     12 C03          5.4480     0.5370    -0.7960 c3         1 99J       0.155800
     13 C04          3.9370     0.3510    -0.6310 c3         1 99J       0.102800
     14 N05          3.6040     0.3180     0.8010 nh         1 99J      -0.400000
     15 C06          4.3080    -0.7810     1.4760 c3         1 99J       0.102800
     16 C07          5.8180    -0.5950     1.3110 c3         1 99J       0.155800
     17 C08          2.0760     0.0000     1.2030 ca         1 99J       0.010600
     18 C09          1.3810     0.0000     0.0000 ca         1 99J      -0.109500
     19 C11         -0.6940    -0.0010     1.2030 ca         1 99J      -0.024400
     20 N14         -2.1070    -1.3770    -0.6770 nb         1 99J      -0.731000
     21 C16         -4.1130    -1.9380    -1.7330 ca         1 99J      -0.547200
     22 O18         -4.9270    -3.2100    -3.5980 o          1 99J      -0.653500
     23 N19         -6.3270    -2.0460    -2.2070 n          1 99J      -0.150100
     24 N23         -6.1460    -1.2410    -1.0770 na         1 99J       0.150700
     25 N25         -4.1080    -0.5470     0.1670 nb         1 99J      -0.729000
     26 N27         -8.4230    -0.7620    -0.7550 nb         1 99J      -0.576000
     27 C29         -9.1820     0.6000     1.0010 ca         1 99J      -0.221300
     28 C30         -7.8780     0.7750     1.4440 ca         1 99J      -0.032000
     29 C31         -6.8550     0.1580     0.7470 ca         1 99J      -0.244300
     30 C32        -10.8330    -0.3850    -0.5940 c3         1 99J       0.096800
     31 O33        -11.1940    -1.7600    -0.4540 oh         1 99J      -0.545800
     32 C34        -10.9310     0.0220    -2.0650 c3         1 99J       0.560900
     33 F35        -12.2430    -0.1640    -2.5140 f          1 99J      -0.202300
     34 F36        -10.5770     1.3680    -2.2020 f          1 99J      -0.202300
     35 F37        -10.0620    -0.7690    -2.8260 f          1 99J      -0.202300
     36 C38          0.0010    -0.0070     2.4060 ca         1 99J      -0.099000
     37 C39          1.3810    -0.0110     2.4050 ca         1 99J      -0.109500
     38 H101        -0.5420     0.0000    -0.9380 ha         1 99J       0.121500
     39 H121        -2.5930     0.4960     1.9170 hn         1 99J       0.290800
     40 H151        -2.1650    -2.6130    -2.3660 h4         1 99J      -0.005900
     41 H211        -7.8530    -0.3260    -3.7710 ha         1 99J       0.108000
     42 H221        -8.1670    -2.9140    -5.3390 ha         1 99J       0.085000
     43 H222        -8.3270    -1.1530    -5.9670 ha         1 99J       0.085000
     44 H012         6.4180    -2.6360    -0.2750 h1         1 99J       0.005367
     45 H013         4.7930    -2.0620    -0.6710 h1         1 99J       0.005367
     46 H011         6.1230    -1.8050    -1.8090 h1         1 99J       0.005367
     47 H032         5.6990     0.5320    -1.8500 h1         1 99J       0.030200
     48 H031         5.7450     1.4800    -0.3540 h1         1 99J       0.030200
     49 H042         3.6360    -0.5810    -1.0930 h1         1 99J       0.024450
     50 H041         3.4190     1.1780    -1.1020 h1         1 99J       0.024450
     51 H062         4.0570    -0.7760     2.5300 h1         1 99J       0.024450
     52 H061         4.0100    -1.7250     1.0330 h1         1 99J       0.024450
     53 H071         6.1190     0.3380     1.7720 h1         1 99J       0.030200
     54 H072         6.3370    -1.4210     1.7820 h1         1 99J       0.030200
     55 H091         1.9230     0.0010    -0.9380 ha         1 99J       0.121000
     56 H291       -10.0060     1.0700     1.5250 ha         1 99J       0.118000
     57 H301        -7.6660     1.3840     2.3150 ha         1 99J       0.114000
     58 H311        -5.8260     0.2730     1.0660 ha         1 99J       0.166000
     59 H321       -11.5050     0.2270    -0.0050 h1         1 99J       0.034700
     60 H331       -11.9790    -1.8270     0.0630 ho         1 99J       0.401000
     61 H381        -0.5410    -0.0120     3.3440 ha         1 99J       0.121500
     62 H391         1.8910     0.2410     3.3270 ha         1 99J       0.121000
     63 C20         -7.6180    -2.3580    -2.8260 c3         1 99J       0.091200
     64 C01          5.8520    -1.8510    -0.7610 c3         1 99J       0.168100
     65 H201        -7.5970    -3.3700    -3.2130 h1         1 99J       0.063700
     66 H202        -8.4040    -2.2710    -2.0860 h1         1 99J       0.063700
@<TRIPOS>BOND
     1     1    18 ar  
     2     1    19 ar  
     3     1    38 1   
     4     2     3 1   
     5     2    19 1   
     6     2    39 1   
     7     3    20 ar  
     8     3    25 ar  
     9     4    20 ar  
    10     4    21 ar  
    11     4    40 1   
    12     5    21 1   
    13     5    22 2   
    14     5    23 1   
    15     6     7 2   
    16     6    41 1   
    17     6    63 1   
    18     7    42 1   
    19     7    43 1   
    20     8    21 ar  
    21     8    24 1   
    22     8    25 ar  
    23     9    24 1   
    24     9    26 ar  
    25     9    29 ar  
    26    10    26 ar  
    27    10    27 ar  
    28    10    30 1   
    29    11    12 1   
    30    11    16 1   
    31    11    64 1   
    32    12    13 1   
    33    12    47 1   
    34    12    48 1   
    35    13    14 1   
    36    13    49 1   
    37    13    50 1   
    38    14    15 1   
    39    14    17 1   
    40    15    16 1   
    41    15    51 1   
    42    15    52 1   
    43    16    53 1   
    44    16    54 1   
    45    17    18 ar  
    46    17    37 ar  
    47    18    55 1   
    48    19    36 ar  
    49    23    24 1   
    50    23    63 1   
    51    27    28 ar  
    52    27    56 1   
    53    28    29 ar  
    54    28    57 1   
    55    29    58 1   
    56    30    31 1   
    57    30    32 1   
    58    30    59 1   
    59    31    60 1   
    60    32    33 1   
    61    32    34 1   
    62    32    35 1   
    63    36    37 ar  
    64    36    61 1   
    65    37    62 1   
    66    44    64 1   
    67    45    64 1   
    68    46    64 1   
    69    63    65 1   
    70    63    66 1   
@<TRIPOS>SUBSTRUCTURE
     1 99J         1 TEMP              0 ****  ****    0 ROOT
