@<TRIPOS>MOLECULE
molecule
   66    70     1     0     0
SMALL
bcc


@<TRIPOS>ATOM
      1 C10          0.0000     0.0000     0.0000 ca         1 99J      -0.126500
      2 N12         -2.0940     0.0030     1.2030 nu         1 99J      -0.743300
      3 C13         -2.7870    -0.6540     0.2070 ca         1 99J       0.989900
      4 C15         -2.7260    -2.0250    -1.6490 ca         1 99J       0.589200
      5 C17         -5.1280    -2.4890    -2.6390 c          1 99J       0.733100
      6 C21         -7.8800    -1.3940    -3.9540 c2         1 99J      -0.188200
      7 C22         -8.1390    -1.8460    -5.1560 c2         1 99J      -0.200000
      8 C24         -4.8050    -1.1650    -0.7740 ca         1 99J       0.622800
      9 C26         -7.1660    -0.6150    -0.3670 ca         1 99J       0.561800
     10 C28         -9.4190    -0.1850    -0.1100 ca         1 99J       0.431600
     11 N02          6.1510    -0.5630    -0.1210 n3         1 99J      -0.722600
     12 C03          5.4480     0.5370    -0.7960 c3         1 99J       0.161300
     13 C04          3.9370     0.3510    -0.6310 c3         1 99J       0.105300
     14 N05          3.6040     0.3180     0.8010 nh         1 99J      -0.571000
     15 C06          4.3080    -0.7810     1.4760 c3         1 99J       0.105300
     16 C07          5.8180    -0.5950     1.3110 c3         1 99J       0.161300
     17 C08          2.0760     0.0000     1.2030 ca         1 99J       0.061600
     18 C09          1.3810     0.0000     0.0000 ca         1 99J      -0.129500
     19 C11         -0.6940    -0.0010     1.2030 ca         1 99J       0.137600
     20 N14         -2.1070    -1.3770    -0.6770 nb         1 99J      -0.815000
     21 C16         -4.1130    -1.9380    -1.7330 ca         1 99J      -0.518200
     22 O18         -4.9270    -3.2100    -3.5980 o          1 99J      -0.613500
     23 N19         -6.3270    -2.0460    -2.2070 n          1 99J      -0.355100
     24 N23         -6.1460    -1.2410    -1.0770 na         1 99J      -0.189300
     25 N25         -4.1080    -0.5470     0.1670 nb         1 99J      -0.854000
     26 N27         -8.4230    -0.7620    -0.7550 nb         1 99J      -0.709000
     27 C29         -9.1820     0.6000     1.0010 ca         1 99J      -0.260300
     28 C30         -7.8780     0.7750     1.4440 ca         1 99J      -0.063000
     29 C31         -6.8550     0.1580     0.7470 ca         1 99J      -0.261300
     30 C32        -10.8330    -0.3850    -0.5940 c3         1 99J       0.063800
     31 O33        -11.1940    -1.7600    -0.4540 oh         1 99J      -0.562800
     32 C34        -10.9310     0.0220    -2.0650 c3         1 99J       0.605900
     33 F35        -12.2430    -0.1640    -2.5140 f          1 99J      -0.215300
     34 F36        -10.5770     1.3680    -2.2020 f          1 99J      -0.215300
     35 F37        -10.0620    -0.7690    -2.8260 f          1 99J      -0.215300
     36 C38          0.0010    -0.0070     2.4060 ca         1 99J      -0.126500
     37 C39          1.3810    -0.0110     2.4050 ca         1 99J      -0.129500
     38 H101        -0.5420     0.0000    -0.9380 ha         1 99J       0.147500
     39 H121        -2.5930     0.4950     1.9170 hn         1 99J       0.465800
     40 H151        -2.1650    -2.6130    -2.3660 h4         1 99J       0.049100
     41 H211        -7.8530    -0.3260    -3.7710 ha         1 99J       0.132000
     42 H221        -8.3270    -1.1530    -5.9670 ha         1 99J       0.115000
     43 H222        -8.1670    -2.9140    -5.3390 ha         1 99J       0.115000
     44 H012         6.3950    -2.6400    -0.2560 h1         1 99J       0.034367
     45 H013         6.1510    -1.8150    -1.8020 h1         1 99J       0.034367
     46 H011         4.7880    -2.0470    -0.6980 h1         1 99J       0.034367
     47 H032         5.7450     1.4800    -0.3540 h1         1 99J       0.063700
     48 H031         5.6990     0.5320    -1.8500 h1         1 99J       0.063700
     49 H042         3.6360    -0.5810    -1.0930 h1         1 99J       0.046200
     50 H041         3.4190     1.1780    -1.1020 h1         1 99J       0.046200
     51 H062         4.0100    -1.7250     1.0330 h1         1 99J       0.046200
     52 H061         4.0570    -0.7760     2.5300 h1         1 99J       0.046200
     53 H071         6.3370    -1.4210     1.7820 h1         1 99J       0.063700
     54 H072         6.1190     0.3380     1.7720 h1         1 99J       0.063700
     55 H091         1.9230     0.0010    -0.9380 ha         1 99J       0.143000
     56 H291       -10.0060     1.0700     1.5250 ha         1 99J       0.141000
     57 H301        -7.6660     1.3840     2.3150 ha         1 99J       0.149000
     58 H311        -5.8260     0.2730     1.0660 ha         1 99J       0.189000
     59 H321       -11.5050     0.2270    -0.0050 h1         1 99J       0.071700
     60 H331       -11.9790    -1.8270     0.0630 ho         1 99J       0.416000
     61 H381        -0.5410    -0.0120     3.3440 ha         1 99J       0.147500
     62 H391         1.8910     0.2410     3.3270 ha         1 99J       0.143000
     63 C20         -7.6180    -2.3580    -2.8260 c3         1 99J       0.156200
     64 C01          5.8520    -1.8510    -0.7610 c3         1 99J       0.142100
     65 H201        -7.5970    -3.3700    -3.2130 h1         1 99J       0.095700
     66 H202        -8.4040    -2.2710    -2.0860 h1         1 99J       0.095700
@<TRIPOS>BOND
     1    34    32 1
     2    64    11 1
     3    11    16 1
     4    11    12 1
     5    33    32 1
     6    32    35 1
     7    32    30 1
     8    16    15 1
     9    31    30 1
    10    12    13 1
    11    27    28 ar
    12    27    10 ar
    13    30    10 1
    14    13    14 1
    15    28    29 ar
    16    10    26 ar
    17    15    14 1
    18    14    17 1
    19    29     9 ar
    20    26     9 ar
    21    17    37 ar
    22    17    18 ar
    23    37    36 ar
    24     9    24 1
    25     6     7 2
    26     6    63 1
    27    36    19 ar
    28    18     1 ar
    29    63    23 1
    30    24    23 1
    31    24     8 1
    32    23     5 1
    33     1    19 ar
    34    19     2 1
    35    25     8 ar
    36    25     3 ar
    37     8    21 ar
    38     2     3 1
    39     5    21 1
    40     5    22 2
    41     3    20 ar
    42    21     4 ar
    43    20     4 ar
    44     1    38 1
    45     2    39 1
    46     4    40 1
    47    63    65 1
    48    63    66 1
    49     6    41 1
    50     7    42 1
    51     7    43 1
    52    64    44 1
    53    64    45 1
    54    64    46 1
    55    12    47 1
    56    12    48 1
    57    13    49 1
    58    13    50 1
    59    15    51 1
    60    15    52 1
    61    16    53 1
    62    16    54 1
    63    18    55 1
    64    27    56 1
    65    28    57 1
    66    29    58 1
    67    30    59 1
    68    31    60 1
    69    36    61 1
    70    37    62 1
@<TRIPOS>SUBSTRUCTURE
     1 99J         1 TEMP              0 ****  ****    0 ROOT
