@<TRIPOS>MOLECULE
molecule
   27    28     1     0     0
SMALL
bcc


@<TRIPOS>ATOM
      1 O1           0.0000     0.0000     0.0000 o          1 99K      -0.203000
      2 O3           1.8270     0.0000    -1.0540 o          1 99K      -0.203000
      3 C11          4.8440    -2.1150     0.4330 ca         1 99K       0.709200
      4 C13          6.7180    -2.6260     1.6800 ca         1 99K       0.501200
      5 C14          7.2500    -3.3730     0.6480 ca         1 99K      -0.345600
      6 C15          6.5440    -3.4890    -0.5420 ca         1 99K      -0.008000
      7 C16          5.3190    -2.8530    -0.6470 ca         1 99K      -0.151900
      8 C18          8.5820    -4.0570     0.8120 c3         1 99K       0.684200
      9 N2           1.2180     0.0000     0.0000 no         1 99K       0.296200
     10 C4           1.9580     0.0000     1.2820 ca         1 99K      -0.328500
     11 C5           1.4880     0.7250     2.3620 ca         1 99K      -0.007000
     12 C6           2.2120     0.6920     3.5480 ca         1 99K      -0.301300
     13 C7           3.3690    -0.0580     3.6130 ca         1 99K       0.492200
     14 N8           3.7930    -0.7390     2.5660 nb         1 99K      -0.679000
     15 C9           3.1320    -0.7330     1.4180 ca         1 99K       0.734200
     16 N10          3.6130    -1.4720     0.3420 nu         1 99K      -0.851600
     17 N12          5.5500    -2.0270     1.5500 nb         1 99K      -0.678000
     18 Cl           4.3870    -2.9740    -2.1070 cl         1 99K      -0.077400
     19 F19          8.4210    -5.4370     0.6530 f          1 99K      -0.221300
     20 F20          9.4750    -3.5780    -0.1530 f          1 99K      -0.221300
     21 F21          9.0890    -3.7910     2.0890 f          1 99K      -0.221300
     22 H1           7.2660    -2.5320     2.6100 h4         1 99K       0.049100
     23 H2           6.9400    -4.0700    -1.3660 ha         1 99K       0.168000
     24 H3           0.5770     1.3060     2.2860 ha         1 99K       0.168000
     25 H4           1.8720     1.2480     4.4120 ha         1 99K       0.156000
     26 H5           3.9360    -0.0870     4.5350 h4         1 99K       0.040100
     27 H6           3.0620    -1.5630    -0.4880 hn         1 99K       0.499800
@<TRIPOS>BOND
     1    12    13 ar
     2    12    11 ar
     3    13    14 ar
     4    11    10 ar
     5    14    15 ar
     6    10    15 ar
     7    10     9 1
     8    15    16 1
     9    17     4 ar
    10    17     3 ar
    11     2     9 1
    12     4     5 ar
    13     9     1 1
    14    16     3 1
    15    20     8 1
    16     3     7 ar
    17    19     8 1
    18     5     8 1
    19     5     6 ar
    20     8    21 1
    21     7     6 ar
    22     7    18 1
    23     4    22 1
    24     6    23 1
    25    11    24 1
    26    12    25 1
    27    13    26 1
    28    16    27 1
@<TRIPOS>SUBSTRUCTURE
     1 99K         1 TEMP              0 ****  ****    0 ROOT
