@<TRIPOS>MOLECULE
99K
   27    28     1     0     0
SMALL
bcc


@<TRIPOS>ATOM
      1 O1           0.0000     0.0000     0.0000 o          1 99K      -0.448000
      2 O3           1.8270     0.0000    -1.0540 o          1 99K      -0.448000
      3 C11          4.8440    -2.1150     0.4330 ca         1 99K       0.513200
      4 C13          6.7180    -2.6260     1.6800 ca         1 99K       0.493200
      5 C14          7.2500    -3.3730     0.6480 ca         1 99K      -0.369600
      6 C15          6.5440    -3.4890    -0.5420 ca         1 99K       0.031000
      7 C16          5.3190    -2.8530    -0.6470 ca         1 99K      -0.227900
      8 C18          8.5820    -4.0570     0.8120 c3         1 99K       0.653200
      9 N2           1.2180     0.0000     0.0000 no         1 99K       1.058200
     10 C4           1.9580     0.0000     1.2820 ca         1 99K      -0.624500
     11 C5           1.4880     0.7250     2.3620 ca         1 99K       0.057000
     12 C6           2.2120     0.6920     3.5480 ca         1 99K      -0.282300
     13 C7           3.3690    -0.0580     3.6130 ca         1 99K       0.494200
     14 N8           3.7930    -0.7390     2.5660 nb         1 99K      -0.583000
     15 C9           3.1320    -0.7330     1.4180 ca         1 99K       0.561200
     16 N10          3.6130    -1.4720     0.3420 nu         1 99K      -0.411600
     17 N12          5.5500    -2.0270     1.5500 nb         1 99K      -0.569000
     18 Cl           4.3870    -2.9740    -2.1070 cl         1 99K       0.025600
     19 F19          8.4210    -5.4370     0.6530 f          1 99K      -0.206633
     20 F20          9.4750    -3.5780    -0.1530 f          1 99K      -0.206633
     21 F21          9.0890    -3.7910     2.0890 f          1 99K      -0.206633
     22 H1           7.2660    -2.5320     2.6100 h4         1 99K      -0.000900
     23 H2           6.9400    -4.0700    -1.3660 ha         1 99K       0.130000
     24 H3           0.5770     1.3060     2.2860 ha         1 99K       0.127000
     25 H4           1.8720     1.2480     4.4120 ha         1 99K       0.127000
     26 H5           3.9360    -0.0870     4.5350 h4         1 99K      -0.014900
     27 H6           3.0620    -1.5630    -0.4880 hn         1 99K       0.329800
@<TRIPOS>BOND
     1     1     9 1   
     2     2     9 1   
     3     3     7 ar  
     4     3    16 1   
     5     3    17 ar  
     6     4     5 ar  
     7     4    17 ar  
     8     4    22 1   
     9     5     6 ar  
    10     5     8 1   
    11     6     7 ar  
    12     6    23 1   
    13     7    18 1   
    14     8    19 1   
    15     8    20 1   
    16     8    21 1   
    17     9    10 1   
    18    10    11 ar  
    19    10    15 ar  
    20    11    12 ar  
    21    11    24 1   
    22    12    13 ar  
    23    12    25 1   
    24    13    14 ar  
    25    13    26 1   
    26    14    15 ar  
    27    15    16 1   
    28    16    27 1   
@<TRIPOS>SUBSTRUCTURE
     1 99K         1 TEMP              0 ****  ****    0 ROOT
