@<TRIPOS>MOLECULE
99L
   45    48     1     0     0
SMALL
bcc


@<TRIPOS>ATOM
      1 C10          0.0000     0.0000     0.0000 ca         1 99L       0.011000
      2 C20          1.3500     2.6800     5.8220 c3         1 99L       0.235800
      3 C21          0.6470     3.2960     7.0360 c3         1 99L      -0.036400
      4 C22         -0.8200     3.5640     6.6890 c3         1 99L      -0.050400
      5 C24         -0.8330     1.6110     5.1240 c3         1 99L       0.208800
      6 C01          2.0150     0.0000     1.2530 ca         1 99L      -0.136000
      7 C02          3.3980     0.0010     1.1040 ca         1 99L      -0.053200
      8 N03          3.6570    -0.0000    -0.2610 n          1 99L       0.223700
      9 C04          2.4920    -0.0010    -0.9620 c          1 99L       0.249800
     10 C05          1.3380     0.0130     2.4730 ca         1 99L       0.076000
     11 C06          2.1230     0.0120     3.6380 ca         1 99L      -0.171500
     12 C07          3.4860    -0.0020     3.5070 ca         1 99L       0.052000
     13 C08          4.1350     0.0010     2.2740 ca         1 99L      -0.151000
     14 C09          1.3830     0.0000     0.0000 ca         1 99L      -0.148000
     15 C11         -0.6910     0.0070     1.2110 ca         1 99L      -0.097000
     16 C12         -0.0660     0.0140     2.4290 ca         1 99L      -0.090000
     17 O13          2.3870    -0.0020    -2.1740 o          1 99L      -0.353000
     18 C14          4.9940     0.0000    -0.8580 c3         1 99L      -0.010700
     19 S15          1.3720     0.0280     5.2320 sy         1 99L       1.062200
     20 O16          0.3510    -0.9600     5.2030 o          1 99L      -0.589800
     21 O17          2.4320     0.0230     6.1760 o          1 99L      -0.589800
     22 N18          0.6050     1.4870     5.3980 n3         1 99L      -0.530500
     23 C19          5.4610    -1.4420    -1.0660 c3         1 99L      -0.017100
     24 C23         -1.5150     2.2440     6.3480 c3         1 99L       0.178100
     25 O25         -2.8910     2.4920     6.0540 oh         1 99L      -0.585800
     26 H101        -0.5440    -0.0050    -0.9370 ha         1 99L       0.112000
     27 H202         2.3600     2.3980     6.0940 h1         1 99L       0.021700
     28 H211         0.7000     2.6080     7.8710 hc         1 99L       0.022200
     29 H212         1.1310     4.2290     7.2980 hc         1 99L       0.022200
     30 H222        -1.3130     4.0200     7.5390 hc         1 99L       0.022200
     31 H221        -0.8720     4.2290     5.8360 hc         1 99L       0.022200
     32 H242        -1.2540     0.6300     4.9420 h1         1 99L       0.035700
     33 H241        -0.9840     2.2440     4.2580 h1         1 99L       0.035700
     34 H071         4.0900    -0.0160     4.4070 ha         1 99L       0.124000
     35 H081         5.2180    -0.0100     2.2320 ha         1 99L       0.114000
     36 H111        -1.7740     0.0070     1.1870 ha         1 99L       0.107000
     37 H121        -0.6460     0.0190     3.3440 ha         1 99L       0.142000
     38 H142         4.9630     0.5110    -1.8130 h1         1 99L       0.032700
     39 H141         5.6840     0.5120    -0.1980 h1         1 99L       0.032700
     40 H192         5.5520    -1.9340    -0.1050 hc         1 99L       0.013367
     41 H193         4.7390    -1.9710    -1.6760 hc         1 99L       0.013367
     42 H191         6.4230    -1.4420    -1.5640 hc         1 99L       0.013367
     43 H231        -1.4360     1.5690     7.1910 h1         1 99L       0.007700
     44 H251        -3.4240     2.2040     6.7770 ho         1 99L       0.393000
     45 H201         1.3730     3.3990     5.0130 h1         1 99L       0.021700
@<TRIPOS>BOND
     1     1    14 ar  
     2     1    15 ar  
     3     1    26 1   
     4     2     3 1   
     5     2    22 1   
     6     2    27 1   
     7     2    45 1   
     8     3     4 1   
     9     3    28 1   
    10     3    29 1   
    11     4    24 1   
    12     4    30 1   
    13     4    31 1   
    14     5    22 1   
    15     5    24 1   
    16     5    32 1   
    17     5    33 1   
    18     6     7 ar  
    19     6    10 ar  
    20     6    14 ar  
    21     7     8 1   
    22     7    13 ar  
    23     8     9 1   
    24     8    18 1   
    25     9    14 1   
    26     9    17 2   
    27    10    11 ar  
    28    10    16 ar  
    29    11    12 ar  
    30    11    19 1   
    31    12    13 ar  
    32    12    34 1   
    33    13    35 1   
    34    15    16 ar  
    35    15    36 1   
    36    16    37 1   
    37    18    23 1   
    38    18    38 1   
    39    18    39 1   
    40    19    20 2   
    41    19    21 2   
    42    19    22 1   
    43    23    40 1   
    44    23    41 1   
    45    23    42 1   
    46    24    25 1   
    47    24    43 1   
    48    25    44 1   
@<TRIPOS>SUBSTRUCTURE
     1 99L         1 TEMP              0 ****  ****    0 ROOT
