@<TRIPOS>MOLECULE
99M
   65    69     1     0     0
SMALL
bcc


@<TRIPOS>ATOM
      1 C10          0.0000     0.0000     0.0000 ca         1 99M       0.371600
      2 C15          1.3800     0.0000     0.0000 ca         1 99M      -0.173300
      3 C17          1.3240    -0.0010     2.3810 ca         1 99M      -0.204300
      4 C20          1.1190     0.1680     6.5580 ca         1 99M       0.731900
      5 C22          2.0710     1.1690     8.5310 ca         1 99M      -0.026400
      6 C24          2.1400     0.0750    10.6640 ca         1 99M      -0.117500
      7 C28          2.8000    -0.8560    14.6680 c3         1 99M       0.222900
      8 C02         -1.2750    -2.5030     4.5380 c          1 99M       0.675100
      9 N03         -0.8800    -2.1960     3.2860 n          1 99M      -0.162100
     10 C04         -1.3840    -2.8240     2.0620 c3         1 99M       0.117200
     11 C05         -0.4930    -3.9810     1.6880 c2         1 99M      -0.197200
     12 C06         -1.0060    -5.1730     1.5160 c2         1 99M      -0.126000
     13 N07          0.0840    -1.1830     3.3370 na         1 99M       0.010700
     14 C08         -0.0650    -0.0010     2.3070 ca         1 99M       0.322800
     15 N09         -0.6770    -0.0010     1.1320 nb         1 99M      -0.517000
     16 C11         -0.7440     0.0060    -1.3110 c3         1 99M       0.118500
     17 C12         -2.2450     0.1380    -1.0450 c3         1 99M      -0.029100
     18 O13         -0.3020     1.1110    -2.1040 oh         1 99M      -0.586800
     19 C14         -0.4700    -1.3000    -2.0590 c3         1 99M      -0.029100
     20 C16          2.0610     0.0000     1.2100 ca         1 99M      -0.095000
     21 C18          0.3150    -0.8320     4.6480 ca         1 99M       0.439800
     22 N19          1.1100     0.0490     5.2370 nb         1 99M      -0.683000
     23 C23          2.0280     0.0070     9.2890 ca         1 99M      -0.096500
     24 C25          2.2980     1.3060    11.2870 ca         1 99M       0.062600
     25 N26          2.2970     0.5760    12.7480 nh         1 99M      -0.467000
     26 C27          2.4870    -0.8190    13.1700 c3         1 99M       0.128800
     27 O29          1.7430    -0.2130    15.3860 os         1 99M      -0.417600
     28 C30          1.5300     1.1480    15.0000 c3         1 99M       0.222900
     29 C31          1.2060     1.2050    13.5060 c3         1 99M       0.128800
     30 C32          2.3470     2.4680    10.5280 ca         1 99M      -0.117500
     31 C33          2.2340     2.4000     9.1540 ca         1 99M      -0.096500
     32 N34          0.3470    -0.5730     7.3430 nb         1 99M      -0.713000
     33 C35         -0.4760    -1.4760     6.8360 ca         1 99M       0.592200
     34 C36         -0.5190    -1.6380     5.4530 ca         1 99M      -0.536200
     35 H151         1.9270     0.0010    -0.9350 ha         1 99M       0.126000
     36 H171         1.8390    -0.7080     3.0200 ha         1 99M       0.163000
     37 H241         2.1060    -0.8310    11.2560 ha         1 99M       0.122500
     38 H282         2.8830    -1.8850    14.9950 h1         1 99M       0.012200
     39 H042        -1.3890    -2.0980     1.2580 h1         1 99M       0.047200
     40 H041        -2.3920    -3.1850     2.2290 h1         1 99M       0.047200
     41 H051         0.5720    -3.8260     1.5620 ha         1 99M       0.106000
     42 H062        -2.0700    -5.3280     1.6420 ha         1 99M       0.087000
     43 H061        -0.3650    -6.0050     1.2470 ha         1 99M       0.087000
     44 H122        -2.5990    -0.7460    -0.5280 hc         1 99M       0.016200
     45 H121        -2.4280     1.0120    -0.4320 hc         1 99M       0.016200
     46 H123        -2.7710     0.2400    -1.9860 hc         1 99M       0.016200
     47 H131        -0.6930     1.0600    -2.9600 ho         1 99M       0.399000
     48 H141         0.5160    -1.2610    -2.5050 hc         1 99M       0.016200
     49 H142        -0.5210    -2.1310    -1.3660 hc         1 99M       0.016200
     50 H143        -1.2130    -1.4330    -2.8370 hc         1 99M       0.016200
     51 H161         3.1440     0.0000     1.2370 ha         1 99M       0.114000
     52 H231         1.9050    -0.9530     8.8020 ha         1 99M       0.119500
     53 H271         1.5820    -1.3810    12.9770 h1         1 99M       0.019450
     54 H272         3.3130    -1.2530    12.6190 h1         1 99M       0.019450
     55 H301         2.4270     1.7230    15.1970 h1         1 99M       0.012200
     56 H302         0.7010     1.5570    15.5650 h1         1 99M       0.012200
     57 H311         1.3750     2.2730    13.5630 h1         1 99M       0.019450
     58 H312         0.2630     1.0080    13.0100 h1         1 99M       0.019450
     59 H321         2.4720     3.4280    11.0150 ha         1 99M       0.122500
     60 H331         2.2720     3.3070     8.5620 ha         1 99M       0.119500
     61 H351        -1.1030    -2.0780     7.4820 h4         1 99M      -0.005900
     62 N21          1.9560     1.1010     7.1360 nu         1 99M      -0.268300
     63 O01         -2.1010    -3.3390     4.8530 o          1 99M      -0.652500
     64 H281         3.7310    -0.3350    14.8550 h1         1 99M       0.012200
     65 H211         2.5060     1.7070     6.5590 hn         1 99M       0.294800
@<TRIPOS>BOND
     1     1     2 ar  
     2     1    15 ar  
     3     1    16 1   
     4     2    20 ar  
     5     2    35 1   
     6     3    14 ar  
     7     3    20 ar  
     8     3    36 1   
     9     4    22 ar  
    10     4    32 ar  
    11     4    62 1   
    12     5    23 ar  
    13     5    31 ar  
    14     5    62 1   
    15     6    23 ar  
    16     6    24 ar  
    17     6    37 1   
    18     7    26 1   
    19     7    27 1   
    20     7    38 1   
    21     7    64 1   
    22     8     9 1   
    23     8    34 1   
    24     8    63 2   
    25     9    10 1   
    26     9    13 1   
    27    10    11 1   
    28    10    39 1   
    29    10    40 1   
    30    11    12 2   
    31    11    41 1   
    32    12    42 1   
    33    12    43 1   
    34    13    14 1   
    35    13    21 1   
    36    14    15 ar  
    37    16    17 1   
    38    16    18 1   
    39    16    19 1   
    40    17    44 1   
    41    17    45 1   
    42    17    46 1   
    43    18    47 1   
    44    19    48 1   
    45    19    49 1   
    46    19    50 1   
    47    20    51 1   
    48    21    22 ar  
    49    21    34 ar  
    50    23    52 1   
    51    24    25 1   
    52    24    30 ar  
    53    25    26 1   
    54    25    29 1   
    55    26    53 1   
    56    26    54 1   
    57    27    28 1   
    58    28    29 1   
    59    28    55 1   
    60    28    56 1   
    61    29    57 1   
    62    29    58 1   
    63    30    31 ar  
    64    30    59 1   
    65    31    60 1   
    66    32    33 ar  
    67    33    34 ar  
    68    33    61 1   
    69    62    65 1   
@<TRIPOS>SUBSTRUCTURE
     1 99M         1 TEMP              0 ****  ****    0 ROOT
