@<TRIPOS>MOLECULE
molecule
   65    69     1     0     0
SMALL
bcc


@<TRIPOS>ATOM
      1 C10          0.0000     0.0000     0.0000 ca         1 99M       0.447600
      2 C15          1.3800     0.0000     0.0000 ca         1 99M      -0.213300
      3 C17          1.3240    -0.0010     2.3810 ca         1 99M      -0.201300
      4 C20          1.1190     0.1680     6.5580 ca         1 99M       0.973900
      5 C22          2.0710     1.1690     8.5310 ca         1 99M       0.135600
      6 C24          2.1400     0.0750    10.6640 ca         1 99M      -0.127000
      7 C28          2.8000    -0.8560    14.6680 c3         1 99M       0.144400
      8 C02         -1.2750    -2.5030     4.5380 c          1 99M       0.723100
      9 N03         -0.8800    -2.1960     3.2860 n          1 99M      -0.427100
     10 C04         -1.3840    -2.8240     2.0620 c3         1 99M       0.170200
     11 C05         -0.4930    -3.9810     1.6880 c2         1 99M      -0.205200
     12 C06         -1.0060    -5.1730     1.5160 c2         1 99M      -0.195000
     13 N07          0.0840    -1.1830     3.3370 na         1 99M      -0.085300
     14 C08         -0.0650    -0.0010     2.3070 ca         1 99M       0.451800
     15 N09         -0.6770    -0.0010     1.1320 nb         1 99M      -0.674000
     16 C11         -0.7440     0.0060    -1.3110 c3         1 99M       0.105500
     17 C12         -2.2450     0.1380    -1.0450 c3         1 99M      -0.112600
     18 O13         -0.3020     1.1110    -2.1040 oh         1 99M      -0.601800
     19 C14         -0.4700    -1.3000    -2.0590 c3         1 99M      -0.112600
     20 C16          2.0610     0.0000     1.2100 ca         1 99M      -0.117000
     21 C18          0.3150    -0.8320     4.6480 ca         1 99M       0.537800
     22 N19          1.1100     0.0490     5.2370 nb         1 99M      -0.796000
     23 C23          2.0280     0.0070     9.2890 ca         1 99M      -0.128000
     24 C25          2.2980     1.3060    11.2870 ca         1 99M       0.137600
     25 N26          2.2970     0.5760    12.7480 nh         1 99M      -0.736000
     26 C27          2.4870    -0.8190    13.1700 c3         1 99M       0.167300
     27 O29          1.7430    -0.2130    15.3860 os         1 99M      -0.430600
     28 C30          1.5300     1.1480    15.0000 c3         1 99M       0.144400
     29 C31          1.2060     1.2050    13.5060 c3         1 99M       0.167300
     30 C32          2.3470     2.4680    10.5280 ca         1 99M      -0.127000
     31 C33          2.2340     2.4000     9.1540 ca         1 99M      -0.128000
     32 N34          0.3470    -0.5730     7.3430 nb         1 99M      -0.798000
     33 C35         -0.4760    -1.4760     6.8360 ca         1 99M       0.579200
     34 C36         -0.5190    -1.6380     5.4530 ca         1 99M      -0.507200
     35 H151         1.9270     0.0010    -0.9350 ha         1 99M       0.154000
     36 H171         1.8390    -0.7080     3.0200 ha         1 99M       0.184000
     37 H241         2.1060    -0.8310    11.2560 ha         1 99M       0.145000
     38 H282         3.7310    -0.3350    14.8550 h1         1 99M       0.053700
     39 H042        -1.3890    -2.0980     1.2580 h1         1 99M       0.079700
     40 H041        -2.3920    -3.1850     2.2290 h1         1 99M       0.079700
     41 H051         0.5720    -3.8260     1.5620 ha         1 99M       0.130000
     42 H062        -0.3650    -6.0050     1.2470 ha         1 99M       0.117000
     43 H061        -2.0700    -5.3280     1.6420 ha         1 99M       0.117000
     44 H122        -2.5990    -0.7460    -0.5280 hc         1 99M       0.048033
     45 H121        -2.7720     0.2400    -1.9860 hc         1 99M       0.048033
     46 H123        -2.4280     1.0120    -0.4320 hc         1 99M       0.048033
     47 H131        -0.6930     1.0600    -2.9600 ho         1 99M       0.411000
     48 H141        -1.2130    -1.4330    -2.8370 hc         1 99M       0.048033
     49 H142         0.5160    -1.2610    -2.5050 hc         1 99M       0.048033
     50 H143        -0.5210    -2.1310    -1.3660 hc         1 99M       0.048033
     51 H161         3.1440     0.0000     1.2370 ha         1 99M       0.144000
     52 H231         1.9050    -0.9530     8.8020 ha         1 99M       0.147000
     53 H271         3.3130    -1.2530    12.6190 h1         1 99M       0.042700
     54 H272         1.5820    -1.3810    12.9770 h1         1 99M       0.042700
     55 H301         2.4270     1.7230    15.1970 h1         1 99M       0.053700
     56 H302         0.7010     1.5570    15.5650 h1         1 99M       0.053700
     57 H311         1.3750     2.2730    13.5630 h1         1 99M       0.042700
     58 H312         0.2630     1.0080    13.0100 h1         1 99M       0.042700
     59 H321         2.4720     3.4280    11.0150 ha         1 99M       0.145000
     60 H331         2.2720     3.3070     8.5620 ha         1 99M       0.147000
     61 H351        -1.1030    -2.0780     7.4820 h4         1 99M       0.049100
     62 N21          1.9560     1.1010     7.1360 nu         1 99M      -0.744300
     63 O01         -2.1010    -3.3390     4.8530 o          1 99M      -0.610500
     64 H281         2.8830    -1.8850    14.9950 h1         1 99M       0.053700
     65 H211         2.5060     1.7060     6.5590 hn         1 99M       0.469800
@<TRIPOS>BOND
     1    27    28 1
     2    27     7 1
     3    18    16 1
     4    28    29 1
     5     7    26 1
     6     2    20 ar
     7     2     1 ar
     8    29    25 1
     9    19    16 1
    10    20     3 ar
    11    16     1 1
    12    16    17 1
    13    26    25 1
    14     1    15 ar
    15    25    24 1
    16     3    14 ar
    17    15    14 ar
    18    24    30 ar
    19    24     6 ar
    20    30    31 ar
    21    14    13 1
    22    11    12 2
    23    11    10 1
    24     6    23 ar
    25    31     5 ar
    26    13     9 1
    27    13    21 1
    28    10     9 1
    29    23     5 ar
    30     5    62 1
    31     9     8 1
    32    22    21 ar
    33    22     4 ar
    34    21    34 ar
    35    62     4 1
    36     4    32 ar
    37     8    34 1
    38     8    63 2
    39    34    33 ar
    40    32    33 ar
    41     2    35 1
    42     3    36 1
    43     6    37 1
    44     7    64 1
    45     7    38 1
    46    10    39 1
    47    10    40 1
    48    11    41 1
    49    12    42 1
    50    12    43 1
    51    17    44 1
    52    17    45 1
    53    17    46 1
    54    18    47 1
    55    19    48 1
    56    19    49 1
    57    19    50 1
    58    20    51 1
    59    62    65 1
    60    23    52 1
    61    26    53 1
    62    26    54 1
    63    28    55 1
    64    28    56 1
    65    29    57 1
    66    29    58 1
    67    30    59 1
    68    31    60 1
    69    33    61 1
@<TRIPOS>SUBSTRUCTURE
     1 99M         1 TEMP              0 ****  ****    0 ROOT
