@<TRIPOS>MOLECULE
molecule
   45    48     1     0     0
SMALL
bcc


@<TRIPOS>ATOM
      1 C10          0.0000     0.0000     0.0000 ca         1 99O      -0.037000
      2 C20          1.3920     2.6770     5.8180 c3         1 99O       0.238800
      3 C21          1.1520     3.7980     4.8010 c3         1 99O      -0.098400
      4 C22         -0.3520     4.0410     4.6600 c3         1 99O      -0.110400
      5 C24         -0.8160     1.6350     5.1580 c3         1 99O       0.239800
      6 C01          2.0140     0.0000     1.2530 ca         1 99O      -0.120000
      7 C02          3.3970     0.0020     1.1050 ca         1 99O       0.085800
      8 N03          3.6570     0.0020    -0.2600 n          1 99O      -0.162300
      9 C04          2.4920     0.0020    -0.9610 c          1 99O       0.321800
     10 C05          1.3380     0.0120     2.4740 ca         1 99O       0.065000
     11 C06          2.1230     0.0100     3.6390 ca         1 99O      -0.334500
     12 C07          3.4850    -0.0020     3.5080 ca         1 99O       0.025000
     13 C08          4.1340     0.0010     2.2750 ca         1 99O      -0.183000
     14 C09          1.3830     0.0000     0.0000 ca         1 99O      -0.133000
     15 C11         -0.6910     0.0050     1.2120 ca         1 99O      -0.121000
     16 C12         -0.0670     0.0120     2.4300 ca         1 99O      -0.110000
     17 O13          2.3880     0.0020    -2.1730 o          1 99O      -0.310000
     18 C14          4.9940     0.0040    -0.8570 c3         1 99O       0.054300
     19 S15          1.3700     0.0240     5.2320 sy         1 99O       1.433200
     20 O16          0.3360    -0.9490     5.1960 o          1 99O      -0.634800
     21 O17          2.4310    -0.0030     6.1760 o          1 99O      -0.634800
     22 N18          0.6250     1.4920     5.4090 n3         1 99O      -0.818500
     23 C19          5.4620    -1.4380    -1.0660 c3         1 99O      -0.116100
     24 C23         -1.0310     2.7690     4.1460 c3         1 99O       0.125100
     25 O25         -2.4300     3.0060     3.9850 oh         1 99O      -0.605800
     26 H101        -0.5440    -0.0050    -0.9370 ha         1 99O       0.148000
     27 H202         1.0620     3.0010     6.7980 h1         1 99O       0.059200
     28 H211         1.5620     3.5070     3.8420 hc         1 99O       0.051700
     29 H212         1.6330     4.7050     5.1460 hc         1 99O       0.051700
     30 H221        -0.5210     4.8480     3.9570 hc         1 99O       0.051700
     31 H222        -0.7660     4.3040     5.6260 hc         1 99O       0.051700
     32 H241        -1.2080     0.7100     4.7540 h1         1 99O       0.073700
     33 H242        -1.3220     1.8770     6.0850 h1         1 99O       0.073700
     34 H071         4.0880    -0.0160     4.4080 ha         1 99O       0.157000
     35 H081         5.2170    -0.0090     2.2330 ha         1 99O       0.141000
     36 H111        -1.7740     0.0040     1.1870 ha         1 99O       0.142000
     37 H121        -0.6470     0.0160     3.3450 ha         1 99O       0.161000
     38 H142         5.6840     0.5150    -0.1960 h1         1 99O       0.064200
     39 H141         4.9620     0.5150    -1.8120 h1         1 99O       0.064200
     40 H193         6.3970    -1.4380    -1.6130 hc         1 99O       0.048367
     41 H191         5.6050    -1.9140    -0.1040 hc         1 99O       0.048367
     42 H192         4.7140    -1.9820    -1.6300 hc         1 99O       0.048367
     43 H231        -0.5950     2.4890     3.1940 h1         1 99O       0.038700
     44 H251        -2.5650     3.6520     3.3110 ho         1 99O       0.408000
     45 H201         2.4470     2.4330     5.8460 h1         1 99O       0.059200
@<TRIPOS>BOND
     1    25    24 1
     2    24     4 1
     3    24     5 1
     4     4     3 1
     5     3     2 1
     6     5    22 1
     7    22     2 1
     8    22    19 1
     9    21    19 2
    10    15    16 ar
    11    15     1 ar
    12    16    10 ar
    13    19    20 2
    14    19    11 1
    15     1    14 ar
    16    10    11 ar
    17    10     6 ar
    18    11    12 ar
    19     6    14 ar
    20     6     7 ar
    21    14     9 1
    22    12    13 ar
    23     7    13 ar
    24     7     8 1
    25     9    17 2
    26     9     8 1
    27     8    18 1
    28    23    18 1
    29     1    26 1
    30     2    45 1
    31     2    27 1
    32     3    28 1
    33     3    29 1
    34     4    30 1
    35     4    31 1
    36     5    32 1
    37     5    33 1
    38    12    34 1
    39    13    35 1
    40    15    36 1
    41    16    37 1
    42    18    38 1
    43    18    39 1
    44    23    40 1
    45    23    41 1
    46    23    42 1
    47    24    43 1
    48    25    44 1
@<TRIPOS>SUBSTRUCTURE
     1 99O         1 TEMP              0 ****  ****    0 ROOT
