@<TRIPOS>MOLECULE
99O
   45    48     1     0     0
SMALL
bcc


@<TRIPOS>ATOM
      1 C10          0.0000     0.0000     0.0000 ca         1 99O       0.010000
      2 C20          1.3920     2.6770     5.8180 c3         1 99O       0.241800
      3 C21          1.1520     3.7980     4.8010 c3         1 99O      -0.043400
      4 C22         -0.3520     4.0410     4.6600 c3         1 99O      -0.059400
      5 C24         -0.8160     1.6350     5.1580 c3         1 99O       0.222800
      6 C01          2.0140     0.0000     1.2530 ca         1 99O      -0.137000
      7 C02          3.3970     0.0020     1.1050 ca         1 99O      -0.055200
      8 N03          3.6570     0.0020    -0.2600 n          1 99O       0.223700
      9 C04          2.4920     0.0020    -0.9610 c          1 99O       0.249800
     10 C05          1.3380     0.0120     2.4740 ca         1 99O       0.075000
     11 C06          2.1230     0.0100     3.6390 ca         1 99O      -0.173500
     12 C07          3.4850    -0.0020     3.5080 ca         1 99O       0.052000
     13 C08          4.1340     0.0010     2.2750 ca         1 99O      -0.151000
     14 C09          1.3830     0.0000     0.0000 ca         1 99O      -0.148000
     15 C11         -0.6910     0.0050     1.2120 ca         1 99O      -0.100000
     16 C12         -0.0670     0.0120     2.4300 ca         1 99O      -0.094000
     17 O13          2.3880     0.0020    -2.1730 o          1 99O      -0.352000
     18 C14          4.9940     0.0040    -0.8570 c3         1 99O      -0.010700
     19 S15          1.3700     0.0240     5.2320 sy         1 99O       1.062200
     20 O16          0.3360    -0.9490     5.1960 o          1 99O      -0.586800
     21 O17          2.4310    -0.0030     6.1760 o          1 99O      -0.586800
     22 N18          0.6250     1.4920     5.4090 n3         1 99O      -0.529500
     23 C19          5.4620    -1.4380    -1.0660 c3         1 99O      -0.017100
     24 C23         -1.0310     2.7690     4.1460 c3         1 99O       0.161100
     25 O25         -2.4300     3.0060     3.9850 oh         1 99O      -0.584800
     26 H101        -0.5440    -0.0050    -0.9370 ha         1 99O       0.113000
     27 H202         1.0620     3.0010     6.7980 h1         1 99O       0.024200
     28 H211         1.5620     3.5070     3.8420 hc         1 99O       0.019200
     29 H212         1.6330     4.7050     5.1460 hc         1 99O       0.019200
     30 H221        -0.5210     4.8480     3.9570 hc         1 99O       0.022700
     31 H222        -0.7660     4.3040     5.6260 hc         1 99O       0.022700
     32 H241        -1.2080     0.7100     4.7540 h1         1 99O       0.040700
     33 H242        -1.3220     1.8770     6.0850 h1         1 99O       0.040700
     34 H071         4.0880    -0.0160     4.4080 ha         1 99O       0.125000
     35 H081         5.2170    -0.0090     2.2330 ha         1 99O       0.114000
     36 H111        -1.7740     0.0040     1.1870 ha         1 99O       0.108000
     37 H121        -0.6470     0.0160     3.3450 ha         1 99O       0.148000
     38 H142         5.6840     0.5150    -0.1960 h1         1 99O       0.032700
     39 H141         4.9620     0.5150    -1.8120 h1         1 99O       0.032700
     40 H193         6.3970    -1.4380    -1.6130 hc         1 99O       0.013367
     41 H191         5.6050    -1.9140    -0.1040 hc         1 99O       0.013367
     42 H192         4.7140    -1.9820    -1.6300 hc         1 99O       0.013367
     43 H231        -0.5950     2.4890     3.1940 h1         1 99O       0.008700
     44 H251        -2.5650     3.6520     3.3110 ho         1 99O       0.394000
     45 H201         2.4470     2.4330     5.8460 h1         1 99O       0.024200
@<TRIPOS>BOND
     1     1    14 ar  
     2     1    15 ar  
     3     1    26 1   
     4     2     3 1   
     5     2    22 1   
     6     2    27 1   
     7     2    45 1   
     8     3     4 1   
     9     3    28 1   
    10     3    29 1   
    11     4    24 1   
    12     4    30 1   
    13     4    31 1   
    14     5    22 1   
    15     5    24 1   
    16     5    32 1   
    17     5    33 1   
    18     6     7 ar  
    19     6    10 ar  
    20     6    14 ar  
    21     7     8 1   
    22     7    13 ar  
    23     8     9 1   
    24     8    18 1   
    25     9    14 1   
    26     9    17 2   
    27    10    11 ar  
    28    10    16 ar  
    29    11    12 ar  
    30    11    19 1   
    31    12    13 ar  
    32    12    34 1   
    33    13    35 1   
    34    15    16 ar  
    35    15    36 1   
    36    16    37 1   
    37    18    23 1   
    38    18    38 1   
    39    18    39 1   
    40    19    20 2   
    41    19    21 2   
    42    19    22 1   
    43    23    40 1   
    44    23    41 1   
    45    23    42 1   
    46    24    25 1   
    47    24    43 1   
    48    25    44 1   
@<TRIPOS>SUBSTRUCTURE
     1 99O         1 TEMP              0 ****  ****    0 ROOT
