@<TRIPOS>MOLECULE
molecule
   47    50     1     0     0
SMALL
bcc


@<TRIPOS>ATOM
      1 C10          0.0000     0.0000     0.0000 ca         1 99R      -0.049000
      2 C20          1.3750     2.6940     5.8050 c3         1 99R       0.229800
      3 C21          1.1270     3.8080     4.7830 c3         1 99R      -0.090400
      4 C22         -0.3800     4.0410     4.6430 c3         1 99R      -0.097400
      5 C24         -0.8270     1.6340     5.1530 c3         1 99R       0.222800
      6 C01          2.0140     0.0000     1.2530 ca         1 99R      -0.127000
      7 C02          3.3970    -0.0030     1.1040 ca         1 99R       0.107800
      8 N03          3.6570    -0.0170    -0.2600 n          1 99R      -0.157300
      9 C04          2.4920    -0.0010    -0.9620 c          1 99R       0.314800
     10 C05          1.3380     0.0120     2.4730 ca         1 99R       0.071000
     11 C06          2.1230     0.0220     3.6380 ca         1 99R      -0.360500
     12 C07          3.4850     0.0200     3.5070 ca         1 99R       0.047000
     13 C08          4.1360     0.0070     2.2740 ca         1 99R      -0.182000
     14 C09          1.3830     0.0000     0.0000 ca         1 99R      -0.103000
     15 C11         -0.6920     0.0070     1.2110 ca         1 99R      -0.119000
     16 C12         -0.0670     0.0130     2.4300 ca         1 99R      -0.154000
     17 O13          2.3870    -0.0070    -2.1740 o          1 99R      -0.277000
     18 C14          4.9940    -0.0240    -0.8590 c3         1 99R       0.050300
     19 S15          1.3710     0.0380     5.2320 sy         1 99R       1.423200
     20 O16          0.3430    -0.9430     5.2000 o          1 99R      -0.611300
     21 O17          2.4320     0.0220     6.1770 o          1 99R      -0.611300
     22 N18          0.6160     1.5020     5.4020 n3         1 99R      -0.809500
     23 C19          5.4580    -1.4690    -1.0520 c3         1 99R      -0.116100
     24 C23         -1.0490     2.7620     4.1350 c3         1 99R       0.068500
     25 N25         -2.4900     2.9940     3.9690 nz         1 99R      -0.808600
     26 H101        -0.5440    -0.0050    -0.9370 ha         1 99R       0.160000
     27 H211         1.6020     4.7200     5.1230 hc         1 99R       0.077700
     28 H212         1.5370     3.5150     3.8250 hc         1 99R       0.077700
     29 H222        -0.5550     4.8430     3.9370 hc         1 99R       0.065700
     30 H221        -0.7950     4.3050     5.6080 hc         1 99R       0.065700
     31 H241        -1.3340     1.8770     6.0790 h1         1 99R       0.079200
     32 H242        -1.2120     0.7040     4.7530 h1         1 99R       0.079200
     33 H071         4.0890     0.0290     4.4070 ha         1 99R       0.164000
     34 H081         5.2180     0.0060     2.2310 ha         1 99R       0.156000
     35 H111        -1.7750     0.0070     1.1860 ha         1 99R       0.126000
     36 H121        -0.6460     0.0180     3.3450 ha         1 99R       0.128000
     37 H141         5.6850     0.4930    -0.2040 h1         1 99R       0.070200
     38 H142         4.9620     0.4770    -1.8190 h1         1 99R       0.070200
     39 H192         6.2800    -1.4920    -1.7580 hc         1 99R       0.053367
     40 H191         5.7860    -1.8730    -0.1020 hc         1 99R       0.053367
     41 H193         4.6370    -2.0640    -1.4340 hc         1 99R       0.053367
     42 H231        -0.6120     2.4800     3.1840 hx         1 99R       0.127700
     43 H251        -2.6520     3.4930     3.1170 hn         1 99R       0.455800
     44 H252        -2.8320     3.5320     4.7410 hn         1 99R       0.455800
     45 H202         1.0430     3.0200     6.7840 h1         1 99R       0.081700
     46 H253        -2.9680     2.1160     3.9390 hn         1 99R       0.455800
     47 H201         2.4310     2.4580     5.8340 h1         1 99R       0.081700
@<TRIPOS>BOND
     1    25    24 1
     2     4    24 1
     3     4     3 1
     4    24     5 1
     5     3     2 1
     6     5    22 1
     7    22     2 1
     8    22    19 1
     9    21    19 2
    10    15    16 ar
    11    15     1 ar
    12    16    10 ar
    13    19    20 2
    14    19    11 1
    15     1    14 ar
    16    10    11 ar
    17    10     6 ar
    18    11    12 ar
    19    14     6 ar
    20    14     9 1
    21     6     7 ar
    22    12    13 ar
    23     7    13 ar
    24     7     8 1
    25     9    17 2
    26     9     8 1
    27     8    18 1
    28    23    18 1
    29     1    26 1
    30     2    45 1
    31     2    47 1
    32     3    27 1
    33     3    28 1
    34     4    29 1
    35     4    30 1
    36     5    31 1
    37     5    32 1
    38    12    33 1
    39    13    34 1
    40    15    35 1
    41    16    36 1
    42    18    37 1
    43    18    38 1
    44    23    39 1
    45    23    40 1
    46    23    41 1
    47    24    42 1
    48    25    43 1
    49    25    44 1
    50    46    25 1
@<TRIPOS>SUBSTRUCTURE
     1 99R         1 TEMP              0 ****  ****    0 ROOT
