@<TRIPOS>MOLECULE
99R
   47    50     1     0     0
SMALL
bcc


@<TRIPOS>ATOM
      1 C10          0.0000     0.0000     0.0000 ca         1 99R      -0.006000
      2 C20          1.3750     2.6940     5.8050 c3         1 99R       0.237800
      3 C21          1.1270     3.8080     4.7830 c3         1 99R      -0.035400
      4 C22         -0.3800     4.0410     4.6430 c3         1 99R      -0.021400
      5 C24         -0.8270     1.6340     5.1530 c3         1 99R       0.228800
      6 C01          2.0140     0.0000     1.2530 ca         1 99R      -0.146000
      7 C02          3.3970    -0.0030     1.1040 ca         1 99R      -0.031200
      8 N03          3.6570    -0.0170    -0.2600 n          1 99R       0.231700
      9 C04          2.4920    -0.0010    -0.9620 c          1 99R       0.238800
     10 C05          1.3380     0.0120     2.4730 ca         1 99R       0.084000
     11 C06          2.1230     0.0220     3.6380 ca         1 99R      -0.205500
     12 C07          3.4850     0.0200     3.5070 ca         1 99R       0.082000
     13 C08          4.1360     0.0070     2.2740 ca         1 99R      -0.151000
     14 C09          1.3830     0.0000     0.0000 ca         1 99R      -0.110000
     15 C11         -0.6920     0.0070     1.2110 ca         1 99R      -0.095000
     16 C12         -0.0670     0.0130     2.4300 ca         1 99R      -0.143000
     17 O13          2.3870    -0.0070    -2.1740 o          1 99R      -0.316000
     18 C14          4.9940    -0.0240    -0.8590 c3         1 99R      -0.013700
     19 S15          1.3710     0.0380     5.2320 sy         1 99R       1.065200
     20 O16          0.3430    -0.9430     5.2000 o          1 99R      -0.562800
     21 O17          2.4320     0.0220     6.1770 o          1 99R      -0.562800
     22 N18          0.6160     1.5020     5.4020 n3         1 99R      -0.534500
     23 C19          5.4580    -1.4690    -1.0520 c3         1 99R      -0.014100
     24 C23         -1.0490     2.7620     4.1350 c3         1 99R      -0.126500
     25 N25         -2.4900     2.9940     3.9690 nz         1 99R       0.085400
     26 H101        -0.5440    -0.0050    -0.9370 ha         1 99R       0.123000
     27 H211         1.6020     4.7200     5.1230 hc         1 99R       0.041700
     28 H212         1.5370     3.5150     3.8250 hc         1 99R       0.041700
     29 H222        -0.5550     4.8430     3.9370 hc         1 99R       0.032700
     30 H221        -0.7950     4.3050     5.6080 hc         1 99R       0.032700
     31 H241        -1.3340     1.8770     6.0790 h1         1 99R       0.046700
     32 H242        -1.2120     0.7040     4.7530 h1         1 99R       0.046700
     33 H071         4.0890     0.0290     4.4070 ha         1 99R       0.130000
     34 H081         5.2180     0.0060     2.2310 ha         1 99R       0.127000
     35 H111        -1.7750     0.0070     1.1860 ha         1 99R       0.094000
     36 H121        -0.6460     0.0180     3.3450 ha         1 99R       0.118000
     37 H141         5.6850     0.4930    -0.2040 h1         1 99R       0.038200
     38 H142         4.9620     0.4770    -1.8190 h1         1 99R       0.038200
     39 H192         6.2800    -1.4920    -1.7580 hc         1 99R       0.018033
     40 H191         5.7860    -1.8730    -0.1020 hc         1 99R       0.018033
     41 H193         4.6370    -2.0640    -1.4340 hc         1 99R       0.018033
     42 H231        -0.6120     2.4800     3.1840 hx         1 99R       0.105700
     43 H251        -2.6520     3.4930     3.1170 hn         1 99R       0.223467
     44 H252        -2.8320     3.5320     4.7410 hn         1 99R       0.223467
     45 H202         1.0430     3.0200     6.7840 h1         1 99R       0.042700
     46 H253        -2.9680     2.1160     3.9390 hn         1 99R       0.223467
     47 H201         2.4310     2.4580     5.8340 h1         1 99R       0.042700
@<TRIPOS>BOND
     1     1    14 ar  
     2     1    15 ar  
     3     1    26 1   
     4     2     3 1   
     5     2    22 1   
     6     2    45 1   
     7     2    47 1   
     8     3     4 1   
     9     3    27 1   
    10     3    28 1   
    11     4    24 1   
    12     4    29 1   
    13     4    30 1   
    14     5    22 1   
    15     5    24 1   
    16     5    31 1   
    17     5    32 1   
    18     6     7 ar  
    19     6    10 ar  
    20     6    14 ar  
    21     7     8 1   
    22     7    13 ar  
    23     8     9 1   
    24     8    18 1   
    25     9    14 1   
    26     9    17 2   
    27    10    11 ar  
    28    10    16 ar  
    29    11    12 ar  
    30    11    19 1   
    31    12    13 ar  
    32    12    33 1   
    33    13    34 1   
    34    15    16 ar  
    35    15    35 1   
    36    16    36 1   
    37    18    23 1   
    38    18    37 1   
    39    18    38 1   
    40    19    20 2   
    41    19    21 2   
    42    19    22 1   
    43    23    39 1   
    44    23    40 1   
    45    23    41 1   
    46    24    25 1   
    47    24    42 1   
    48    25    43 1   
    49    25    44 1   
    50    25    46 1   
@<TRIPOS>SUBSTRUCTURE
     1 99R         1 TEMP              0 ****  ****    0 ROOT
