@<TRIPOS>MOLECULE
molecule
   55    58     1     0     0
SMALL
bcc


@<TRIPOS>ATOM
      1 O31          0.0000     0.0000     0.0000 o          1 99S      -0.509000
      2 C30          1.2160     0.0000     0.0000 c          1 99S       0.666700
      3 O32          1.8920     0.0000     1.1680 os         1 99S      -0.428900
      4 C33          1.1130     0.0080     2.3670 c3         1 99S       0.126700
      5 C28          1.9480    -0.0080    -1.2670 cc         1 99S      -0.056700
      6 C27          1.3730    -0.0100    -2.5090 cd         1 99S      -0.053000
      7 C26          2.2610    -0.0180    -3.5490 cd         1 99S      -0.144000
      8 S29          3.6980    -0.0100    -1.4260 ss         1 99S      -0.102800
      9 C25          3.5750    -0.0230    -3.1810 cc         1 99S      -0.039100
     10 C21          4.7210    -0.0320    -4.1140 ca         1 99S      -0.014000
     11 C20          4.5000    -0.0350    -5.4900 ca         1 99S      -0.078000
     12 C19          5.5870    -0.0440    -6.3630 ca         1 99S       0.008000
     13 C23          5.3690    -0.0480    -7.7780 cg         1 99S       0.212800
     14 N24          5.1850    -0.0660    -8.8990 n1         1 99S      -0.307800
     15 C18          6.8880    -0.0480    -5.8540 ca         1 99S      -0.096000
     16 C22          6.0270    -0.0300    -3.6190 ca         1 99S      -0.114000
     17 C17          7.0990    -0.0450    -4.4900 ca         1 99S      -0.074300
     18 C4           8.5050    -0.0440    -3.9480 c3         1 99S       0.119800
     19 C14          9.5010     0.1210    -5.0980 c3         1 99S      -0.061700
     20 C16          9.3220     1.5020    -5.7330 c3         1 99S      -0.103100
     21 C15         10.9270    -0.0130    -4.5610 c3         1 99S      -0.103100
     22 C3           8.6710     1.0870    -2.9650 ce         1 99S       0.071100
     23 C8           8.0430     2.3280    -3.2130 cg         1 99S       0.103500
     24 N9           7.8490     3.4080    -3.7060 n1         1 99S      -0.242800
     25 C2           9.2300     0.9280    -1.7480 c2         1 99S       0.118100
     26 N7           9.3310     2.0340    -0.9410 nz         1 99S      -0.682400
     27 C5           8.7730    -1.3390    -3.2250 cd         1 99S      -0.388600
     28 C10          8.5430    -2.6020    -3.6160 cc         1 99S       0.094400
     29 C13          7.9350    -3.0300    -4.9270 c3         1 99S      -0.078800
     30 N11          8.9560    -3.4200    -2.6220 na         1 99S      -0.026600
     31 N12          9.4570    -2.6240    -1.5810 nc         1 99S      -0.508800
     32 C6           9.3500    -1.3770    -1.9370 cd         1 99S       0.557600
     33 O1           9.6960    -0.2430    -1.2680 os         1 99S      -0.303400
     34 H1           1.8510     0.0720     3.1570 h1         1 99S       0.058700
     35 H2           0.8710     1.0640     2.3750 h1         1 99S       0.058700
     36 H3           0.5860    -0.8470     2.7710 h1         1 99S       0.058700
     37 H4           0.3550     0.2780    -2.7420 ha         1 99S       0.184000
     38 H5           2.3730    -0.0640    -4.6260 ha         1 99S       0.173000
     39 H6           3.4900     0.2670    -5.7390 ha         1 99S       0.162000
     40 H7           7.6100    -0.1060    -6.6600 ha         1 99S       0.163000
     41 H8           5.8530     0.4350    -2.6570 ha         1 99S       0.146000
     42 H9           9.0790    -0.8050    -5.4670 hc         1 99S       0.084700
     43 H10         10.1210     2.0490    -5.2470 hc         1 99S       0.052700
     44 H11          9.8170     1.2810    -6.6710 hc         1 99S       0.052700
     45 H12          8.5900     2.2810    -5.9080 hc         1 99S       0.052700
     46 H13         10.9530    -0.7840    -3.8000 hc         1 99S       0.052700
     47 H14         11.5030    -0.0940    -5.4750 hc         1 99S       0.052700
     48 H15         10.9540     0.8400    -3.8940 hc         1 99S       0.052700
     49 H16          9.7290     2.6540    -1.6190 hn         1 99S       0.477467
     50 H17         10.1540     2.0850    -0.3730 hn         1 99S       0.477467
     51 H18          8.6870    -2.8610    -5.6880 hc         1 99S       0.074033
     52 H19          7.4160    -3.9350    -5.2210 hc         1 99S       0.074033
     53 H20          7.4280    -2.1540    -5.3130 hc         1 99S       0.074033
     54 H21          9.1550    -4.3420    -2.2880 hn         1 99S       0.380700
     55 H73          8.6670     2.2480    -0.2240 hn         1 99S       0.477467
@<TRIPOS>BOND
     1     4     3 1
     2     3     2 1
     3     6     5 2
     4     6     7 1
     5     2     5 1
     6     2     1 2
     7     5     8 1
     8    30    31 1
     9    30    28 1
    10     7     9 2
    11    29    28 1
    12    31    32 2
    13    28    27 2
    14     9     8 1
    15     9    10 1
    16    32    27 1
    17    32    33 1
    18    27    18 1
    19    16    10 ar
    20    16    17 ar
    21    10    11 ar
    22    33    25 1
    23    20    19 1
    24    18    17 1
    25    18    19 1
    26    18    22 1
    27    17    15 ar
    28    11    12 ar
    29    19    21 1
    30    25    22 2
    31    25    26 1
    32    22    23 1
    33    15    12 ar
    34    12    13 1
    35    23    24 3
    36    13    14 3
    37     4    34 1
    38     4    35 1
    39     4    36 1
    40     6    37 1
    41     7    38 1
    42    11    39 1
    43    15    40 1
    44    16    41 1
    45    19    42 1
    46    20    43 1
    47    20    44 1
    48    20    45 1
    49    21    46 1
    50    21    47 1
    51    21    48 1
    52    26    49 1
    53    26    50 1
    54    29    51 1
    55    29    52 1
    56    29    53 1
    57    30    54 1
    58    55    26 1
@<TRIPOS>SUBSTRUCTURE
     1 99S         1 TEMP              0 ****  ****    0 ROOT
