@<TRIPOS>MOLECULE
99S
   55    58     1     0     0
SMALL
bcc


@<TRIPOS>ATOM
      1 O31          0.0000     0.0000     0.0000 o          1 99S      -0.549000
      2 C30          1.2160     0.0000     0.0000 c          1 99S       0.737700
      3 O32          1.8920     0.0000     1.1680 os         1 99S      -0.412900
      4 C33          1.1130     0.0080     2.3670 c3         1 99S       0.259700
      5 C28          1.9480    -0.0080    -1.2670 cc         1 99S      -0.015700
      6 C27          1.3730    -0.0100    -2.5090 cd         1 99S      -0.009000
      7 C26          2.2610    -0.0180    -3.5490 cd         1 99S      -0.121000
      8 S29          3.6980    -0.0100    -1.4260 ss         1 99S      -0.235800
      9 C25          3.5750    -0.0230    -3.1810 cc         1 99S       0.001900
     10 C21          4.7210    -0.0320    -4.1140 ca         1 99S      -0.002000
     11 C20          4.5000    -0.0350    -5.4900 ca         1 99S      -0.069000
     12 C19          5.5870    -0.0440    -6.3630 ca         1 99S       0.070000
     13 C23          5.3690    -0.0480    -7.7780 cg         1 99S       0.189800
     14 N24          5.1850    -0.0660    -8.8990 n1         1 99S      -0.315800
     15 C18          6.8880    -0.0480    -5.8540 ca         1 99S      -0.093000
     16 C22          6.0270    -0.0300    -3.6190 ca         1 99S      -0.110000
     17 C17          7.0990    -0.0450    -4.4900 ca         1 99S      -0.071300
     18 C4           8.5050    -0.0440    -3.9480 c3         1 99S       0.143800
     19 C14          9.5010     0.1210    -5.0980 c3         1 99S      -0.058700
     20 C16          9.3220     1.5020    -5.7330 c3         1 99S      -0.021600
     21 C15         10.9270    -0.0130    -4.5610 c3         1 99S      -0.021600
     22 C3           8.6710     1.0870    -2.9650 ce         1 99S       0.149100
     23 C8           8.0430     2.3280    -3.2130 cg         1 99S       0.071500
     24 N9           7.8490     3.4080    -3.7060 n1         1 99S      -0.228800
     25 C2           9.2300     0.9280    -1.7480 c2         1 99S      -0.132900
     26 N7           9.3310     2.0340    -0.9410 nz         1 99S       0.254600
     27 C5           8.7730    -1.3390    -3.2250 cc         1 99S      -0.408600
     28 C10          8.5430    -2.6020    -3.6160 cd         1 99S      -0.080600
     29 C13          7.9350    -3.0300    -4.9270 c3         1 99S       0.018200
     30 N11          8.9560    -3.4200    -2.6220 na         1 99S       0.456400
     31 N12          9.4570    -2.6240    -1.5810 nd         1 99S      -0.645800
     32 C6           9.3500    -1.3770    -1.9370 cc         1 99S       0.576600
     33 O1           9.6960    -0.2430    -1.2680 os         1 99S      -0.263400
     34 H1           1.8510     0.0720     3.1570 h1         1 99S       0.009033
     35 H2           0.8710     1.0640     2.3750 h1         1 99S       0.009033
     36 H3           0.5860    -0.8470     2.7710 h1         1 99S       0.009033
     37 H4           0.3550     0.2780    -2.7420 ha         1 99S       0.147000
     38 H5           2.3730    -0.0640    -4.6260 ha         1 99S       0.150000
     39 H6           3.4900     0.2670    -5.7390 ha         1 99S       0.137000
     40 H7           7.6100    -0.1060    -6.6600 ha         1 99S       0.143000
     41 H8           5.8530     0.4350    -2.6570 ha         1 99S       0.131000
     42 H9           9.0790    -0.8050    -5.4670 hc         1 99S       0.072700
     43 H10         10.1210     2.0490    -5.2470 hc         1 99S       0.023033
     44 H11          9.8170     1.2810    -6.6710 hc         1 99S       0.023033
     45 H12          8.5900     2.2810    -5.9080 hc         1 99S       0.023033
     46 H13         10.9530    -0.7840    -3.8000 hc         1 99S       0.023033
     47 H14         11.5030    -0.0940    -5.4750 hc         1 99S       0.023033
     48 H15         10.9540     0.8400    -3.8940 hc         1 99S       0.023033
     49 H16          9.7290     2.6540    -1.6190 hn         1 99S       0.227467
     50 H17         10.1540     2.0850    -0.3730 hn         1 99S       0.227467
     51 H18          8.6870    -2.8610    -5.6880 hc         1 99S       0.036700
     52 H19          7.4160    -3.9350    -5.2210 hc         1 99S       0.036700
     53 H20          7.4280    -2.1540    -5.3130 hc         1 99S       0.036700
     54 H21          9.1550    -4.3420    -2.2880 hn         1 99S       0.197700
     55 H73          8.6670     2.2480    -0.2240 hn         1 99S       0.227467
@<TRIPOS>BOND
     1     1     2 2   
     2     2     3 1   
     3     2     5 1   
     4     3     4 1   
     5     4    34 1   
     6     4    35 1   
     7     4    36 1   
     8     5     6 2   
     9     5     8 1   
    10     6     7 1   
    11     6    37 1   
    12     7     9 2   
    13     7    38 1   
    14     8     9 1   
    15     9    10 1   
    16    10    11 ar  
    17    10    16 ar  
    18    11    12 ar  
    19    11    39 1   
    20    12    13 1   
    21    12    15 ar  
    22    13    14 3   
    23    15    17 ar  
    24    15    40 1   
    25    16    17 ar  
    26    16    41 1   
    27    17    18 1   
    28    18    19 1   
    29    18    22 1   
    30    18    27 1   
    31    19    20 1   
    32    19    21 1   
    33    19    42 1   
    34    20    43 1   
    35    20    44 1   
    36    20    45 1   
    37    21    46 1   
    38    21    47 1   
    39    21    48 1   
    40    22    23 1   
    41    22    25 2   
    42    23    24 3   
    43    25    26 1   
    44    25    33 1   
    45    26    49 1   
    46    26    50 1   
    47    26    55 1   
    48    27    28 2   
    49    27    32 1   
    50    28    29 1   
    51    28    30 1   
    52    29    51 1   
    53    29    52 1   
    54    29    53 1   
    55    30    31 1   
    56    30    54 1   
    57    31    32 2   
    58    32    33 1   
@<TRIPOS>SUBSTRUCTURE
     1 99S         1 TEMP              0 ****  ****    0 ROOT
