@<TRIPOS>MOLECULE
99T
   44    43     1     0     0
SMALL
bcc


@<TRIPOS>ATOM
      1 O32          0.0000     0.0000     0.0000 o          1 99T      -0.892300
      2 C3           1.2080     0.0000     0.0000 c          1 99T       0.972600
      3 O31          1.8800     0.0000     1.1620 o          1 99T      -0.892300
      4 CA3          1.9620    -0.0050    -1.3050 c3         1 99T      -0.074000
      5 N3           1.0080    -0.0100    -2.4190 ns         1 99T      -0.133900
      6 C2           1.4580    -0.0150    -3.6900 c          1 99T       0.539100
      7 O2           2.6500    -0.0160    -3.9110 o          1 99T      -0.709100
      8 CA2          0.4780    -0.0210    -4.8340 c3         1 99T      -0.038300
      9 CB2         -0.4010    -1.2710    -4.7470 c3         1 99T       0.061700
     10 SG2         -1.5800    -1.2760    -6.1260 ss         1 99T      -0.478200
     11 N2           1.2090    -0.0260    -6.1030 ns         1 99T      -0.125900
     12 CD1          1.6340     1.1350    -6.6410 c          1 99T       0.577100
     13 OE1          1.4100     2.1830    -6.0750 o          1 99T      -0.644100
     14 CG1          2.3870     1.1290    -7.9460 c3         1 99T      -0.120400
     15 CB1          2.7500     2.5660    -8.3320 c3         1 99T      -0.007400
     16 CA1          3.5150     2.5600    -9.6570 c3         1 99T      -0.205500
     17 N1           4.7990     1.8690    -9.4790 nz         1 99T       0.080400
     18 C1           3.7640     3.9790   -10.0980 c          1 99T       0.966600
     19 O01          2.7890     4.6760   -10.7030 o          1 99T      -0.832800
     20 O02          4.8430     4.4890    -9.9090 o          1 99T      -0.832800
     21 C08         -2.5170    -2.8070    -5.8550 c3         1 99T       0.131700
     22 C09         -3.5700    -2.9620    -6.9540 c3         1 99T      -0.119400
     23 C10         -4.3480    -4.2320    -6.7280 c          1 99T       0.982600
     24 O11         -5.3310    -4.5760    -7.5740 o          1 99T      -0.901300
     25 O12         -4.0860    -4.9430    -5.7860 o          1 99T      -0.901300
     26 H2           2.5850    -0.8890    -1.3590 h1         1 99T       0.022200
     27 H3           2.5840     0.8800    -1.3670 h1         1 99T       0.022200
     28 H4           0.0260     0.0390    -2.2360 hn         1 99T       0.201500
     29 H5          -0.1450     0.8630    -4.7800 h1         1 99T       0.079700
     30 H6           0.2220    -2.1550    -4.8010 h1         1 99T       0.049700
     31 H7          -0.9430    -1.2660    -3.8090 h1         1 99T       0.049700
     32 H8           1.3920    -0.8910    -6.5720 hn         1 99T       0.172500
     33 H9           3.2930     0.5440    -7.8380 hc         1 99T       0.012700
     34 H10          1.7660     0.6930    -8.7200 hc         1 99T       0.012700
     35 H11          3.3710     3.0010    -7.5590 hc         1 99T       0.070200
     36 H12          1.8450     3.1500    -8.4400 hc         1 99T       0.070200
     37 H13          2.9290     2.0450   -10.4090 hx         1 99T       0.082700
     38 H14          5.2370     2.1890    -8.6380 hn         1 99T       0.209800
     39 H15          5.3940     2.0650   -10.2600 hn         1 99T       0.209800
     40 H18         -3.0060    -2.7650    -4.8890 h1         1 99T       0.043700
     41 H19         -1.8410    -3.6530    -5.8810 h1         1 99T       0.043700
     42 H20         -3.0810    -3.0040    -7.9200 hc         1 99T       0.017700
     43 H21         -4.2460    -2.1150    -6.9280 hc         1 99T       0.017700
     44 H131         4.6410     0.8830    -9.4160 hn         1 99T       0.209800
@<TRIPOS>BOND
     1     1     2 1   
     2     2     3 1   
     3     2     4 1   
     4     4     5 1   
     5     4    26 1   
     6     4    27 1   
     7     5     6 1   
     8     5    28 1   
     9     6     7 2   
    10     6     8 1   
    11     8     9 1   
    12     8    11 1   
    13     8    29 1   
    14     9    10 1   
    15     9    30 1   
    16     9    31 1   
    17    10    21 1   
    18    11    12 1   
    19    11    32 1   
    20    12    13 2   
    21    12    14 1   
    22    14    15 1   
    23    14    33 1   
    24    14    34 1   
    25    15    16 1   
    26    15    35 1   
    27    15    36 1   
    28    16    17 1   
    29    16    18 1   
    30    16    37 1   
    31    17    38 1   
    32    17    39 1   
    33    17    44 1   
    34    18    19 1   
    35    18    20 1   
    36    21    22 1   
    37    21    40 1   
    38    21    41 1   
    39    22    23 1   
    40    22    42 1   
    41    22    43 1   
    42    23    24 1   
    43    23    25 1   
@<TRIPOS>SUBSTRUCTURE
     1 99T         1 TEMP              0 ****  ****    0 ROOT
