@<TRIPOS>MOLECULE
molecule
   44    43     1     0     0
SMALL
bcc


@<TRIPOS>ATOM
      1 O32          0.0000     0.0000     0.0000 o          1 99T      -0.846800
      2 C3           1.2080     0.0000     0.0000 c          1 99T       0.883600
      3 O31          1.8800     0.0000     1.1620 o          1 99T      -0.846800
      4 CA3          1.9620    -0.0050    -1.3050 c3         1 99T      -0.002000
      5 N3           1.0080    -0.0100    -2.4190 ns         1 99T      -0.544900
      6 C2           1.4580    -0.0150    -3.6900 c          1 99T       0.635100
      7 O2           2.6500    -0.0160    -3.9110 o          1 99T      -0.655100
      8 CA2          0.4780    -0.0210    -4.8340 c3         1 99T       0.054700
      9 CB2         -0.4010    -1.2710    -4.7470 c3         1 99T       0.009700
     10 SG2         -1.5800    -1.2760    -6.1260 ss         1 99T      -0.438200
     11 N2           1.2090    -0.0260    -6.1030 ns         1 99T      -0.541900
     12 CD1          1.6340     1.1350    -6.6410 c          1 99T       0.671100
     13 OE1          1.4100     2.1830    -6.0750 o          1 99T      -0.601100
     14 CG1          2.3870     1.1290    -7.9460 c3         1 99T      -0.179400
     15 CB1          2.7500     2.5660    -8.3320 c3         1 99T      -0.072400
     16 CA1          3.5150     2.5600    -9.6570 c3         1 99T      -0.022500
     17 N1           4.7990     1.8690    -9.4790 nz         1 99T      -0.791600
     18 C1           3.7640     3.9790   -10.0980 c          1 99T       0.875600
     19 O01          2.7890     4.6760   -10.7030 o          1 99T      -0.788300
     20 O02          4.8430     4.4890    -9.9090 o          1 99T      -0.788300
     21 C08         -2.5170    -2.8070    -5.8550 c3         1 99T       0.064700
     22 C09         -3.5700    -2.9620    -6.9540 c3         1 99T      -0.172400
     23 C10         -4.3480    -4.2320    -6.7280 c          1 99T       0.895600
     24 O11         -5.3310    -4.5760    -7.5740 o          1 99T      -0.852300
     25 O12         -4.0860    -4.9430    -5.7860 o          1 99T      -0.852300
     26 H2           2.5850    -0.8890    -1.3590 h1         1 99T       0.043700
     27 H3           2.5840     0.8800    -1.3670 h1         1 99T       0.043700
     28 H4           0.0260     0.0390    -2.2360 hn         1 99T       0.337500
     29 H5          -0.1450     0.8630    -4.7800 h1         1 99T       0.104700
     30 H6           0.2220    -2.1550    -4.8010 h1         1 99T       0.072200
     31 H7          -0.9430    -1.2660    -3.8090 h1         1 99T       0.072200
     32 H8           1.3920    -0.8910    -6.5720 hn         1 99T       0.318500
     33 H9           3.2930     0.5440    -7.8380 hc         1 99T       0.043200
     34 H10          1.7660     0.6930    -8.7200 hc         1 99T       0.043200
     35 H11          3.3710     3.0010    -7.5590 hc         1 99T       0.102200
     36 H12          1.8450     3.1500    -8.4400 hc         1 99T       0.102200
     37 H13          2.9290     2.0450   -10.4090 hx         1 99T       0.099700
     38 H14          5.2370     2.1890    -8.6380 hn         1 99T       0.437133
     39 H15          5.3940     2.0650   -10.2600 hn         1 99T       0.437133
     40 H18         -3.0060    -2.7650    -4.8890 h1         1 99T       0.065200
     41 H19         -1.8410    -3.6530    -5.8810 h1         1 99T       0.065200
     42 H20         -3.0810    -3.0040    -7.9200 hc         1 99T       0.040700
     43 H21         -4.2460    -2.1150    -6.9280 hc         1 99T       0.040700
     44 H131         4.6410     0.8830    -9.4160 hn         1 99T       0.437133
@<TRIPOS>BOND
     1     1     2 1
     2     3     2 1
     3     2     4 1
     4     4     5 1
     5     5     6 1
     6     6     7 2
     7     6     8 1
     8    24    23 1
     9    23    22 1
    10    23    25 1
    11    22    21 1
    12    13    12 2
    13     8     9 1
    14     8    11 1
    15     9    10 1
    16    12    11 1
    17    12    14 1
    18    21    10 1
    19    15    14 1
    20    15    16 1
    21    17    16 1
    22    16    18 1
    23    18    20 1
    24    18    19 1
    25     4    26 1
    26     4    27 1
    27     5    28 1
    28     8    29 1
    29     9    30 1
    30     9    31 1
    31    11    32 1
    32    14    33 1
    33    14    34 1
    34    15    35 1
    35    15    36 1
    36    16    37 1
    37    17    38 1
    38    17    39 1
    39    21    40 1
    40    21    41 1
    41    22    42 1
    42    22    43 1
    43    44    17 1
@<TRIPOS>SUBSTRUCTURE
     1 99T         1 TEMP              0 ****  ****    0 ROOT
