@<TRIPOS>MOLECULE
99U
   41    44     1     0     0
SMALL
bcc


@<TRIPOS>ATOM
      1 C10          0.0000     0.0000     0.0000 ca         1 99U       0.010000
      2 C20          0.4070    -3.8760     5.2750 c3         1 99U      -0.036900
      3 C21         -1.0150    -3.2760     5.4350 c3         1 99U      -0.036900
      4 C22         -0.7880    -1.7740     5.1630 c3         1 99U       0.245300
      5 C01          2.0150     0.0000     1.2530 ca         1 99U      -0.135000
      6 C02          3.3990     0.0010     1.1040 ca         1 99U      -0.055200
      7 N03          3.6570     0.0020    -0.2620 n          1 99U       0.221700
      8 C04          2.4920     0.0020    -0.9630 c          1 99U       0.249800
      9 C05          1.3390    -0.0120     2.4730 ca         1 99U       0.075000
     10 C06          2.1250    -0.0100     3.6380 ca         1 99U      -0.170500
     11 C07          3.4860     0.0030     3.5060 ca         1 99U       0.052000
     12 C08          4.1370     0.0010     2.2720 ca         1 99U      -0.150000
     13 C09          1.3840     0.0000     0.0000 ca         1 99U      -0.148000
     14 C11         -0.6900    -0.0020     1.2110 ca         1 99U      -0.101000
     15 C12         -0.0650    -0.0080     2.4300 ca         1 99U      -0.087000
     16 O13          2.3870     0.0030    -2.1750 o          1 99U      -0.353000
     17 C14          4.9940     0.0030    -0.8610 c3         1 99U      -0.010700
     18 S15          1.3740    -0.0240     5.2320 sy         1 99U       1.078200
     19 O16          2.4360     0.0090     6.1760 o          1 99U      -0.585800
     20 O17          0.3370     0.9460     5.1940 o          1 99U      -0.585800
     21 N18          0.6340    -1.4950     5.4120 n3         1 99U      -0.555500
     22 C19          1.2900    -2.7400     5.8480 c3         1 99U       0.245300
     23 C23          5.4580     1.4460    -1.0690 c3         1 99U      -0.016100
     24 H101        -0.5440     0.0050    -0.9370 ha         1 99U       0.112000
     25 H202         0.6360    -4.0540     4.2320 hc         1 99U       0.021700
     26 H211        -1.6920    -3.6990     4.7030 hc         1 99U       0.021700
     27 H212        -1.3830    -3.4300     6.4430 hc         1 99U       0.021700
     28 H222        -1.0320    -1.5470     4.1320 h1         1 99U       0.013200
     29 H221        -1.4010    -1.1820     5.8320 h1         1 99U       0.013200
     30 H071         4.0900     0.0170     4.4050 ha         1 99U       0.125000
     31 H081         5.2190     0.0120     2.2290 ha         1 99U       0.114000
     32 H111        -1.7740     0.0020     1.1880 ha         1 99U       0.106000
     33 H121        -0.6440    -0.0100     3.3450 ha         1 99U       0.145000
     34 H141         5.6850    -0.5080    -0.2020 h1         1 99U       0.033700
     35 H142         4.9620    -0.5070    -1.8170 h1         1 99U       0.033700
     36 H191         1.3150    -2.7930     6.9300 h1         1 99U       0.013200
     37 H192         2.2910    -2.8000     5.4390 h1         1 99U       0.013200
     38 H233         6.2030     1.6960    -0.3230 hc         1 99U       0.013033
     39 H232         5.8880     1.5480    -2.0580 hc         1 99U       0.013033
     40 H231         4.6120     2.1150    -0.9720 hc         1 99U       0.013033
     41 H201         0.5120    -4.7800     5.8630 hc         1 99U       0.021700
@<TRIPOS>BOND
     1     1    13 ar  
     2     1    14 ar  
     3     1    24 1   
     4     2     3 1   
     5     2    22 1   
     6     2    25 1   
     7     2    41 1   
     8     3     4 1   
     9     3    26 1   
    10     3    27 1   
    11     4    21 1   
    12     4    28 1   
    13     4    29 1   
    14     5     6 ar  
    15     5     9 ar  
    16     5    13 ar  
    17     6     7 1   
    18     6    12 ar  
    19     7     8 1   
    20     7    17 1   
    21     8    13 1   
    22     8    16 2   
    23     9    10 ar  
    24     9    15 ar  
    25    10    11 ar  
    26    10    18 1   
    27    11    12 ar  
    28    11    30 1   
    29    12    31 1   
    30    14    15 ar  
    31    14    32 1   
    32    15    33 1   
    33    17    23 1   
    34    17    34 1   
    35    17    35 1   
    36    18    19 2   
    37    18    20 2   
    38    18    21 1   
    39    21    22 1   
    40    22    36 1   
    41    22    37 1   
    42    23    38 1   
    43    23    39 1   
    44    23    40 1   
@<TRIPOS>SUBSTRUCTURE
     1 99U         1 TEMP              0 ****  ****    0 ROOT
