@<TRIPOS>MOLECULE
99V
   69    73     1     0     0
SMALL
bcc


@<TRIPOS>ATOM
      1 C10          0.0000     0.0000     0.0000 ca         1 99V       0.378600
      2 C15          1.3810     0.0000     0.0000 ca         1 99V      -0.181300
      3 C17          1.3250    -0.0010     2.3820 ca         1 99V      -0.209300
      4 C20          1.1140    -0.2980     6.5540 ca         1 99V       0.731900
      5 C22          1.9940    -1.4930     8.4510 ca         1 99V       0.017600
      6 C24          2.2470    -2.9300    10.3550 ca         1 99V       0.155900
      7 C26          2.2210    -1.8190    11.1920 ca         1 99V      -0.038400
      8 C28          1.1530    -1.4560    13.2720 c3         1 99V       0.103300
      9 C02         -1.0580     2.6870     4.7320 c          1 99V       0.672100
     10 N03         -0.7240     2.4070     3.4550 n          1 99V      -0.141100
     11 C04         -1.1910     3.1420     2.2760 c3         1 99V       0.136200
     12 C05         -2.4880     2.5440     1.7940 c2         1 99V      -0.217200
     13 C06         -3.5460     3.3020     1.6540 c2         1 99V      -0.123000
     14 N07          0.1390     1.3060     3.4310 na         1 99V      -0.043300
     15 C08         -0.0640    -0.0010     2.3070 ca         1 99V       0.354800
     16 N09         -0.6760    -0.0010     1.1340 nb         1 99V      -0.519000
     17 C11         -0.7440     0.0070    -1.3090 c3         1 99V       0.118500
     18 C12         -2.2450     0.1380    -1.0440 c3         1 99V      -0.034100
     19 O13         -0.3030     1.1110    -2.1030 oh         1 99V      -0.587800
     20 C14         -0.4720    -1.3000    -2.0580 c3         1 99V      -0.034100
     21 C16          2.0610     0.0000     1.2100 ca         1 99V      -0.087000
     22 C18          0.3660     0.8690     4.7160 ca         1 99V       0.448800
     23 N19          1.0850    -0.1120     5.2400 nb         1 99V      -0.678000
     24 C23          2.1340    -2.7660     8.9880 ca         1 99V      -0.167000
     25 F25          2.3840    -4.1680    10.8790 f          1 99V      -0.118900
     26 N27          2.3360    -1.9840    12.5790 nh         1 99V      -0.382000
     27 C29          1.2820    -1.7250    14.7730 c3         1 99V       0.156800
     28 N30          2.5100    -1.0970    15.2780 n3         1 99V      -0.542600
     29 C31          2.4400     0.3660    15.1580 c3         1 99V       0.168100
     30 C32          3.6930    -1.6260    14.5850 c3         1 99V       0.156800
     31 C33          3.5650    -1.3550    13.0840 c3         1 99V       0.103300
     32 C34          2.0870    -0.5480    10.6530 ca         1 99V      -0.091000
     33 C35          1.9730    -0.3850     9.2870 ca         1 99V      -0.111000
     34 N36          0.4350     0.4730     7.3940 nb         1 99V      -0.717000
     35 C37         -0.3080     1.4750     6.9540 ca         1 99V       0.592200
     36 C38         -0.3680     1.7090     5.5820 ca         1 99V      -0.537200
     37 H151         1.9280     0.0010    -0.9350 ha         1 99V       0.127000
     38 H171         1.8410     0.7100     3.0150 ha         1 99V       0.164000
     39 H281         0.2650    -1.9460    12.8930 h1         1 99V       0.021200
     40 H041        -1.3480     4.1810     2.5380 h1         1 99V       0.037700
     41 H042        -0.4480     3.0750     1.4910 h1         1 99V       0.037700
     42 H051        -2.5450     1.4860     1.5650 ha         1 99V       0.133000
     43 H061        -3.4890     4.3590     1.8830 ha         1 99V       0.085000
     44 H062        -4.4780     2.8730     1.3070 ha         1 99V       0.085000
     45 H122        -2.5900    -0.7250    -0.4880 hc         1 99V       0.017533
     46 H121        -2.7750     0.1960    -1.9870 hc         1 99V       0.017533
     47 H123        -2.4330     1.0370    -0.4690 hc         1 99V       0.017533
     48 H131        -0.8300     1.1670    -2.8830 ho         1 99V       0.400000
     49 H142        -0.4990    -2.1280    -1.3610 hc         1 99V       0.017533
     50 H143         0.5050    -1.2520    -2.5240 hc         1 99V       0.017533
     51 H141        -1.2280    -1.4440    -2.8200 hc         1 99V       0.017533
     52 H161         3.1440    -0.0000     1.2370 ha         1 99V       0.113000
     53 H231         2.1540    -3.6310     8.3350 ha         1 99V       0.125000
     54 H291         0.4250    -1.3070    15.2880 h1         1 99V       0.030950
     55 H292         1.3270    -2.7940    14.9440 h1         1 99V       0.030950
     56 H311         1.5610     0.7290    15.6760 h1         1 99V       0.004033
     57 H312         2.3820     0.6400    14.1120 h1         1 99V       0.004033
     58 H313         3.3260     0.8070    15.5990 h1         1 99V       0.004033
     59 H322         4.5820    -1.1360    14.9640 h1         1 99V       0.030950
     60 H321         3.7620    -2.6940    14.7540 h1         1 99V       0.030950
     61 H331         4.4210    -1.7730    12.5680 h1         1 99V       0.021200
     62 H332         3.5190    -0.2870    12.9130 h1         1 99V       0.021200
     63 H341         2.0690     0.3170    11.3050 ha         1 99V       0.115000
     64 H351         1.8680     0.6080     8.8670 ha         1 99V       0.142000
     65 H371        -0.8590     2.1000     7.6450 h4         1 99V      -0.005900
     66 N21          1.8800    -1.3270     7.0640 nu         1 99V      -0.268300
     67 O01         -1.7900     3.5820     5.1070 o          1 99V      -0.646500
     68 H282         1.0830    -0.3880    13.1020 h1         1 99V       0.021200
     69 H211         2.3780    -1.9350     6.4440 hn         1 99V       0.297800
@<TRIPOS>BOND
     1     1     2 ar  
     2     1    16 ar  
     3     1    17 1   
     4     2    21 ar  
     5     2    37 1   
     6     3    15 ar  
     7     3    21 ar  
     8     3    38 1   
     9     4    23 ar  
    10     4    34 ar  
    11     4    66 1   
    12     5    24 ar  
    13     5    33 ar  
    14     5    66 1   
    15     6     7 ar  
    16     6    24 ar  
    17     6    25 1   
    18     7    26 1   
    19     7    32 ar  
    20     8    26 1   
    21     8    27 1   
    22     8    39 1   
    23     8    68 1   
    24     9    10 1   
    25     9    36 1   
    26     9    67 2   
    27    10    11 1   
    28    10    14 1   
    29    11    12 1   
    30    11    40 1   
    31    11    41 1   
    32    12    13 2   
    33    12    42 1   
    34    13    43 1   
    35    13    44 1   
    36    14    15 1   
    37    14    22 1   
    38    15    16 ar  
    39    17    18 1   
    40    17    19 1   
    41    17    20 1   
    42    18    45 1   
    43    18    46 1   
    44    18    47 1   
    45    19    48 1   
    46    20    49 1   
    47    20    50 1   
    48    20    51 1   
    49    21    52 1   
    50    22    23 ar  
    51    22    36 ar  
    52    24    53 1   
    53    26    31 1   
    54    27    28 1   
    55    27    54 1   
    56    27    55 1   
    57    28    29 1   
    58    28    30 1   
    59    29    56 1   
    60    29    57 1   
    61    29    58 1   
    62    30    31 1   
    63    30    59 1   
    64    30    60 1   
    65    31    61 1   
    66    31    62 1   
    67    32    33 ar  
    68    32    63 1   
    69    33    64 1   
    70    34    35 ar  
    71    35    36 ar  
    72    35    65 1   
    73    66    69 1   
@<TRIPOS>SUBSTRUCTURE
     1 99V         1 TEMP              0 ****  ****    0 ROOT
