@<TRIPOS>MOLECULE
molecule
   45    48     1     0     0
SMALL
bcc


@<TRIPOS>ATOM
      1 C10          0.0000     0.0000     0.0000 ca         1 99X      -0.035000
      2 C20         -0.8600     1.6300     5.0150 c3         1 99X       0.230800
      3 C21         -1.3220     2.8210     5.8930 c3         1 99X      -0.087400
      4 C22         -0.0420     3.6970     5.9250 c3         1 99X      -0.087400
      5 C24          2.2600     3.1330     5.0800 c3         1 99X       0.115400
      6 C01          2.0150     0.0000     1.2520 ca         1 99X      -0.115000
      7 C02          3.3980     0.0010     1.1040 ca         1 99X       0.082800
      8 N03          3.6570     0.0010    -0.2610 n          1 99X      -0.163300
      9 C04          2.4930     0.0010    -0.9610 c          1 99X       0.322800
     10 C05          1.3380    -0.0120     2.4740 ca         1 99X       0.074000
     11 C06          2.1240    -0.0100     3.6380 ca         1 99X      -0.319500
     12 C07          3.4850     0.0030     3.5080 ca         1 99X       0.020000
     13 C08          4.1350     0.0010     2.2730 ca         1 99X      -0.181000
     14 C09          1.3840     0.0000     0.0000 ca         1 99X      -0.134000
     15 C11         -0.6910    -0.0010     1.2110 ca         1 99X      -0.123000
     16 C12         -0.0660    -0.0070     2.4300 ca         1 99X      -0.100000
     17 O13          2.3880     0.0010    -2.1740 o          1 99X      -0.315000
     18 C14          4.9940     0.0010    -0.8590 c3         1 99X       0.054300
     19 S15          1.3720    -0.0230     5.2320 sy         1 99X       1.448200
     20 O16          0.3930    -1.0530     5.2050 o          1 99X      -0.638300
     21 O17          2.4330     0.0170     6.1770 o          1 99X      -0.638300
     22 N18          0.5450     1.4030     5.3950 n3         1 99X      -0.816500
     23 C19          5.4590     1.4440    -1.0670 c3         1 99X      -0.116100
     24 C23          1.0930     2.6520     5.9440 c3         1 99X       0.242500
     25 H101        -0.5440     0.0050    -0.9370 ha         1 99X       0.146000
     26 H201        -1.4550     0.7510     5.2320 h1         1 99X       0.054200
     27 H202        -0.9270     1.8890     3.9650 h1         1 99X       0.054200
     28 H211        -2.1410     3.3510     5.4230 hc         1 99X       0.055200
     29 H212        -1.5860     2.4860     6.8880 hc         1 99X       0.055200
     30 H222         0.0220     4.3130     5.0360 hc         1 99X       0.058700
     31 H221        -0.0170     4.3030     6.8230 hc         1 99X       0.058700
     32 H241         2.9970     2.3440     4.9950 h1         1 99X       0.037700
     33 H242         2.7130     4.0040     5.5380 h1         1 99X       0.037700
     34 H071         4.0890     0.0170     4.4070 ha         1 99X       0.153000
     35 H081         5.2180     0.0120     2.2310 ha         1 99X       0.138000
     36 H111        -1.7740     0.0040     1.1870 ha         1 99X       0.137000
     37 H121        -0.6450    -0.0070     3.3450 ha         1 99X       0.154000
     38 H141         5.6850    -0.5100    -0.1990 h1         1 99X       0.064700
     39 H142         4.9620    -0.5090    -1.8140 h1         1 99X       0.064700
     40 H191         4.6510     2.0260    -1.4930 hc         1 99X       0.046367
     41 H192         6.3070     1.4570    -1.7410 hc         1 99X       0.046367
     42 H193         5.7480     1.8710    -0.1140 hc         1 99X       0.046367
     43 H231         1.4250     2.4900     6.9630 h1         1 99X       0.069700
     44 H251         2.1920     4.2730     3.4900 ho         1 99X       0.401000
     45 O25          1.7770     3.4770     3.7790 oh         1 99X      -0.601800
@<TRIPOS>BOND
     1    18    23 1
     2    18     8 1
     3     8     9 1
     4     8     7 1
     5    17     9 2
     6    13     7 ar
     7    13    12 ar
     8     9    14 1
     9     7     6 ar
    10    12    11 ar
    11     6    14 ar
    12     6    10 ar
    13    14     1 ar
    14    11    10 ar
    15    11    19 1
    16    10    16 ar
    17    20    19 2
    18     1    15 ar
    19    19    21 2
    20    19    22 1
    21    16    15 ar
    22     2    22 1
    23     2     3 1
    24    22    24 1
    25    24     4 1
    26    24     5 1
    27     3     4 1
    28     5    45 1
    29     1    25 1
    30     2    26 1
    31     2    27 1
    32     3    28 1
    33     3    29 1
    34     4    30 1
    35     4    31 1
    36     5    32 1
    37     5    33 1
    38    12    34 1
    39    13    35 1
    40    15    36 1
    41    16    37 1
    42    18    38 1
    43    18    39 1
    44    23    40 1
    45    23    41 1
    46    23    42 1
    47    24    43 1
    48    45    44 1
@<TRIPOS>SUBSTRUCTURE
     1 99X         1 TEMP              0 ****  ****    0 ROOT
