@<TRIPOS>MOLECULE
99Z
   43    45     1     0     0
SMALL
bcc


@<TRIPOS>ATOM
      1 N01          0.0000     0.0000     0.0000 nc         1 99Z      -0.657000
      2 N02         -1.9650    -0.0010     1.3300 nu         1 99Z      -0.233300
      3 N03          2.0710     0.0010    -1.1590 nv         1 99Z      -0.609500
      4 N04         -6.3920     1.9920    -3.1550 nz         1 99Z      -0.133500
      5 C05          1.8660     0.0000     1.2680 cd         1 99Z      -0.215000
      6 C06          1.3120     0.0000     0.0000 cc         1 99Z       0.557200
      7 C07         -0.5990    -0.0010     1.1570 cd         1 99Z       0.504300
      8 C08         -2.8090     0.1360     0.2250 ca         1 99Z       0.099600
      9 C09          3.2390     0.0010     1.5740 c          1 99Z       0.686300
     10 C10          3.6830    -0.1130     2.9820 ca         1 99Z      -0.179600
     11 C11          3.5830     0.9840     3.8390 ca         1 99Z      -0.056300
     12 C12          3.9990     0.8720     5.1490 ca         1 99Z      -0.103000
     13 C13          4.5140    -0.3250     5.6150 ca         1 99Z      -0.072000
     14 C14          4.6160    -1.4170     4.7690 ca         1 99Z      -0.107000
     15 C15          4.1980    -1.3180     3.4590 ca         1 99Z      -0.051000
     16 C16         -4.0920    -0.3940     0.2600 ca         1 99Z      -0.156500
     17 C17         -4.9250    -0.2570    -0.8340 ca         1 99Z       0.042500
     18 C18         -4.4820     0.4090    -1.9630 ca         1 99Z      -0.268500
     19 C19         -3.2050     0.9380    -1.9990 ca         1 99Z       0.042500
     20 C20         -2.3700     0.8100    -0.9070 ca         1 99Z      -0.156500
     21 C21          3.0230     2.2880     3.3340 c3         1 99Z       0.043200
     22 O22          4.0630     0.0960     0.6810 o          1 99Z      -0.531100
     23 O23         -6.4970    -0.4720    -3.2670 o          1 99Z      -0.498800
     24 O24         -4.7040     0.7750    -4.4830 o          1 99Z      -0.498800
     25 S25          0.5410    -0.0000     2.4300 ss         1 99Z      -0.224300
     26 S26         -5.5470     0.5810    -3.3550 sy         1 99Z       0.931200
     27 HN02        -2.3520    -0.0780     2.2490 hn         1 99Z       0.301800
     28 HN03         2.3110     0.8680    -1.5990 hn         1 99Z       0.288800
     29 HN0A         2.3450    -0.8650    -1.5790 hn         1 99Z       0.288800
     30 HN04        -5.7520     2.7600    -3.1080 hn         1 99Z       0.311467
     31 HN0B        -7.0120     2.1220    -3.9300 hn         1 99Z       0.311467
     32 H12          3.9210     1.7230     5.8150 ha         1 99Z       0.112000
     33 H13          4.8410    -0.4070     6.6440 ha         1 99Z       0.108000
     34 H14          5.0180    -2.3520     5.1400 ha         1 99Z       0.111000
     35 H15          4.2780    -2.1730     2.7980 ha         1 99Z       0.109000
     36 H16         -4.4400    -0.9150     1.1440 ha         1 99Z       0.151000
     37 H17         -5.9260    -0.6710    -0.8070 ha         1 99Z       0.122500
     38 H19         -2.8620     1.4610    -2.8840 ha         1 99Z       0.122500
     39 H20         -1.3700     1.2250    -0.9370 ha         1 99Z       0.151000
     40 H21          3.3300     3.0920     3.9920 hc         1 99Z       0.014033
     41 H21A         1.9410     2.2330     3.3130 hc         1 99Z       0.014033
     42 H21B         3.3940     2.4780     2.3340 hc         1 99Z       0.014033
     43 H043        -6.9140     1.9500    -2.3030 hn         1 99Z       0.311467
@<TRIPOS>BOND
     1     1     6 1   
     2     1     7 2   
     3     2     7 1   
     4     2     8 1   
     5     2    27 1   
     6     3     6 1   
     7     3    28 1   
     8     3    29 1   
     9     4    26 1   
    10     4    30 1   
    11     4    31 1   
    12     4    43 1   
    13     5     6 2   
    14     5     9 1   
    15     5    25 1   
    16     7    25 1   
    17     8    16 ar  
    18     8    20 ar  
    19     9    10 1   
    20     9    22 2   
    21    10    11 ar  
    22    10    15 ar  
    23    11    12 ar  
    24    11    21 1   
    25    12    13 ar  
    26    12    32 1   
    27    13    14 ar  
    28    13    33 1   
    29    14    15 ar  
    30    14    34 1   
    31    15    35 1   
    32    16    17 ar  
    33    16    36 1   
    34    17    18 ar  
    35    17    37 1   
    36    18    19 ar  
    37    18    26 1   
    38    19    20 ar  
    39    19    38 1   
    40    20    39 1   
    41    21    40 1   
    42    21    41 1   
    43    21    42 1   
    44    23    26 2   
    45    24    26 2   
@<TRIPOS>SUBSTRUCTURE
     1 99Z         1 TEMP              0 ****  ****    0 ROOT
