@<TRIPOS>MOLECULE
9A0
   61    63     1     0     0
SMALL
bcc


@<TRIPOS>ATOM
      1 C10          0.0000     0.0000     0.0000 c3         1 9A0      -0.048100
      2 C11          1.5070     0.0000     0.0000 c          1 9A0       0.558100
      3 C14          3.5770    -0.0990     1.1690 ca         1 9A0      -0.094400
      4 C15          4.3180     0.5010     0.1580 ca         1 9A0      -0.117500
      5 O24          7.3950    -2.7060     0.9420 o          1 9A0      -0.618100
      6 C23          8.2420    -1.8390     0.9790 c          1 9A0       0.567100
      7 N25          9.5440    -2.1640     0.8470 ns         1 9A0      -0.040100
      8 C26          9.9090    -3.4820     0.5550 ca         1 9A0      -0.088400
      9 C31         11.0730    -4.0170     1.0910 ca         1 9A0      -0.118000
     10 C30         11.4320    -5.3190     0.8010 ca         1 9A0      -0.082500
     11 C29         10.6330    -6.0890    -0.0230 ca         1 9A0      -0.115000
     12 C28          9.4750    -5.5600    -0.5600 ca         1 9A0      -0.082500
     13 C27          9.1070    -4.2620    -0.2680 ca         1 9A0      -0.118000
     14 C21          8.3860     0.1060     2.5100 c3         1 9A0       0.002400
     15 C22          8.4130     0.4480     0.0340 c3         1 9A0       0.002400
     16 C17          6.3370    -0.2930     1.1710 ca         1 9A0      -0.081300
     17 C16          5.6950     0.4020     0.1630 ca         1 9A0      -0.070500
     18 C18          5.6020    -0.8870     2.1810 ca         1 9A0      -0.070500
     19 C19          4.2240    -0.7920     2.1830 ca         1 9A0      -0.117500
     20 N13          2.1820     0.0000     1.1670 ns         1 9A0      -0.031100
     21 O12          2.1130    -0.0010    -1.0510 o          1 9A0      -0.626100
     22 C09         -0.5030     0.0010    -1.4210 ca         1 9A0      -0.017300
     23 C08         -0.7340    -1.1960    -2.0720 ca         1 9A0      -0.117500
     24 C07         -1.1950    -1.1970    -3.3750 ca         1 9A0       0.007000
     25 C32         -0.7380     1.1980    -2.0710 ca         1 9A0      -0.117500
     26 C33         -1.2050     1.1980    -3.3710 ca         1 9A0       0.007000
     27 C06         -1.4240     0.0010    -4.0280 ca         1 9A0      -0.158500
     28 S03         -2.0200     0.0010    -5.6850 sy         1 9A0       0.874300
     29 O04         -2.6930    -1.2440    -5.8160 o          1 9A0      -0.590300
     30 O05         -2.7230     1.2290    -5.8060 o          1 9A0      -0.590300
     31 C02         -0.5190     0.0230    -6.7050 c3         1 9A0       0.005400
     32 C01         -0.9080     0.0250    -8.1850 c3         1 9A0       0.037900
     33 H1          -0.3610    -0.8850     0.5100 hc         1 9A0       0.034200
     34 H2          -0.3610     0.8840     0.5110 hc         1 9A0       0.034200
     35 H3           3.8160     1.0440    -0.6330 ha         1 9A0       0.124000
     36 H4          10.2500    -1.4680     0.9890 hn         1 9A0       0.171500
     37 H5          11.7000    -3.4130     1.7370 ha         1 9A0       0.120000
     38 H6          12.3400    -5.7360     1.2200 ha         1 9A0       0.103000
     39 H7          10.9180    -7.1090    -0.2520 ha         1 9A0       0.102000
     40 H8           8.8500    -6.1680    -1.2030 ha         1 9A0       0.103000
     41 H9           8.1990    -3.8480    -0.6890 ha         1 9A0       0.120000
     42 H10          7.8420     0.9930     2.8100 hc         1 9A0       0.012867
     43 H11          9.4380     0.3450     2.4060 hc         1 9A0       0.012867
     44 H12          8.2630    -0.6640     3.2620 hc         1 9A0       0.012867
     45 H13          8.1220     0.0180    -0.9170 hc         1 9A0       0.012867
     46 H14          8.0240     1.4560     0.1100 hc         1 9A0       0.012867
     47 H15          9.4940     0.4710     0.1040 hc         1 9A0       0.012867
     48 H16          6.2740     0.8690    -0.6250 ha         1 9A0       0.113500
     49 H17          6.1080    -1.4270     2.9720 ha         1 9A0       0.113500
     50 H18          3.6500    -1.2590     2.9730 ha         1 9A0       0.124000
     51 H19          1.6800    -0.0360     2.0320 hn         1 9A0       0.164500
     52 H20         -0.5540    -2.1350    -1.5610 ha         1 9A0       0.109000
     53 H21         -1.3710    -2.1350    -3.8870 ha         1 9A0       0.122000
     54 H22         -0.5670     2.1360    -1.5570 ha         1 9A0       0.109000
     55 H23         -1.3870     2.1360    -3.8810 ha         1 9A0       0.122000
     56 H24          0.0560     0.9140    -6.4820 h1         1 9A0       0.064200
     57 H25          0.0770    -0.8550    -6.4900 h1         1 9A0       0.064200
     58 H26         -1.5050     0.9030    -8.4010 hc         1 9A0       0.012033
     59 H27         -1.4820    -0.8660    -8.4090 hc         1 9A0       0.012033
     60 H28         -0.0120     0.0390    -8.7940 hc         1 9A0       0.012033
     61 C20          7.8410    -0.4000     1.1730 c3         1 9A0      -0.080700
@<TRIPOS>BOND
     1     1     2 1   
     2     1    22 1   
     3     1    33 1   
     4     1    34 1   
     5     2    20 1   
     6     2    21 2   
     7     3     4 ar  
     8     3    19 ar  
     9     3    20 1   
    10     4    17 ar  
    11     4    35 1   
    12     5     6 2   
    13     6     7 1   
    14     6    61 1   
    15     7     8 1   
    16     7    36 1   
    17     8     9 ar  
    18     8    13 ar  
    19     9    10 ar  
    20     9    37 1   
    21    10    11 ar  
    22    10    38 1   
    23    11    12 ar  
    24    11    39 1   
    25    12    13 ar  
    26    12    40 1   
    27    13    41 1   
    28    14    42 1   
    29    14    43 1   
    30    14    44 1   
    31    14    61 1   
    32    15    45 1   
    33    15    46 1   
    34    15    47 1   
    35    15    61 1   
    36    16    17 ar  
    37    16    18 ar  
    38    16    61 1   
    39    17    48 1   
    40    18    19 ar  
    41    18    49 1   
    42    19    50 1   
    43    20    51 1   
    44    22    23 ar  
    45    22    25 ar  
    46    23    24 ar  
    47    23    52 1   
    48    24    27 ar  
    49    24    53 1   
    50    25    26 ar  
    51    25    54 1   
    52    26    27 ar  
    53    26    55 1   
    54    27    28 1   
    55    28    29 2   
    56    28    30 2   
    57    28    31 1   
    58    31    32 1   
    59    31    56 1   
    60    31    57 1   
    61    32    58 1   
    62    32    59 1   
    63    32    60 1   
@<TRIPOS>SUBSTRUCTURE
     1 9A0         1 TEMP              0 ****  ****    0 ROOT
