@<TRIPOS>MOLECULE
molecule
   61    63     1     0     0
SMALL
bcc


@<TRIPOS>ATOM
      1 C10          0.0000     0.0000     0.0000 c3         1 9A0      -0.119100
      2 C11          1.5070     0.0000     0.0000 c          1 9A0       0.657100
      3 C14          3.5770    -0.0990     1.1690 ca         1 9A0       0.055600
      4 C15          4.3180     0.5010     0.1580 ca         1 9A0      -0.146500
      5 O24          7.3950    -2.7060     0.9420 o          1 9A0      -0.578100
      6 C23          8.2420    -1.8390     0.9790 c          1 9A0       0.665100
      7 N25          9.5440    -2.1640     0.8470 ns         1 9A0      -0.479100
      8 C26          9.9090    -3.4820     0.5550 ca         1 9A0       0.056600
      9 C31         11.0730    -4.0170     1.0910 ca         1 9A0      -0.145500
     10 C30         11.4320    -5.3190     0.8010 ca         1 9A0      -0.111500
     11 C29         10.6330    -6.0890    -0.0230 ca         1 9A0      -0.146000
     12 C28          9.4750    -5.5600    -0.5600 ca         1 9A0      -0.111500
     13 C27          9.1070    -4.2620    -0.2680 ca         1 9A0      -0.145500
     14 C21          8.3860     0.1060     2.5100 c3         1 9A0      -0.084600
     15 C22          8.4130     0.4480     0.0340 c3         1 9A0      -0.084600
     16 C17          6.3370    -0.2930     1.1710 ca         1 9A0      -0.084300
     17 C16          5.6950     0.4020     0.1630 ca         1 9A0      -0.091000
     18 C18          5.6020    -0.8870     2.1810 ca         1 9A0      -0.091000
     19 C19          4.2240    -0.7920     2.1830 ca         1 9A0      -0.146500
     20 N13          2.1820     0.0000     1.1670 ns         1 9A0      -0.475100
     21 O12          2.1130    -0.0010    -1.0510 o          1 9A0      -0.581100
     22 C09         -0.5030     0.0010    -1.4210 ca         1 9A0      -0.013300
     23 C08         -0.7340    -1.1960    -2.0720 ca         1 9A0      -0.133000
     24 C07         -1.1950    -1.1970    -3.3750 ca         1 9A0      -0.026000
     25 C32         -0.7380     1.1980    -2.0710 ca         1 9A0      -0.133000
     26 C33         -1.2050     1.1980    -3.3710 ca         1 9A0      -0.026000
     27 C06         -1.4240     0.0010    -4.0280 ca         1 9A0      -0.297500
     28 S03         -2.0200     0.0010    -5.6850 sy         1 9A0       1.194300
     29 O04         -2.6930    -1.2440    -5.8160 o          1 9A0      -0.621800
     30 O05         -2.7230     1.2290    -5.8060 o          1 9A0      -0.621800
     31 C02         -0.5190     0.0230    -6.7050 c3         1 9A0      -0.204600
     32 C01         -0.9080     0.0250    -8.1850 c3         1 9A0      -0.074100
     33 H1          -0.3610    -0.8850     0.5100 hc         1 9A0       0.072200
     34 H2          -0.3610     0.8840     0.5110 hc         1 9A0       0.072200
     35 H3           3.8160     1.0440    -0.6330 ha         1 9A0       0.146500
     36 H4          10.2500    -1.4680     0.9890 hn         1 9A0       0.323500
     37 H5          11.7000    -3.4130     1.7370 ha         1 9A0       0.143000
     38 H6          12.3400    -5.7360     1.2200 ha         1 9A0       0.132000
     39 H7          10.9180    -7.1090    -0.2520 ha         1 9A0       0.129000
     40 H8           8.8500    -6.1680    -1.2030 ha         1 9A0       0.132000
     41 H9           8.1990    -3.8480    -0.6890 ha         1 9A0       0.143000
     42 H10          7.8420     0.9930     2.8100 hc         1 9A0       0.044033
     43 H11          9.4380     0.3450     2.4060 hc         1 9A0       0.044033
     44 H12          8.2630    -0.6640     3.2620 hc         1 9A0       0.044033
     45 H13          8.1220     0.0180    -0.9170 hc         1 9A0       0.044033
     46 H14          8.0240     1.4560     0.1100 hc         1 9A0       0.044033
     47 H15          9.4940     0.4710     0.1040 hc         1 9A0       0.044033
     48 H16          6.2740     0.8690    -0.6250 ha         1 9A0       0.137500
     49 H17          6.1080    -1.4270     2.9720 ha         1 9A0       0.137500
     50 H18          3.6500    -1.2590     2.9730 ha         1 9A0       0.146500
     51 H19          1.6800    -0.0360     2.0320 hn         1 9A0       0.321500
     52 H20         -0.5540    -2.1350    -1.5610 ha         1 9A0       0.137000
     53 H21         -1.3710    -2.1350    -3.8870 ha         1 9A0       0.151000
     54 H22         -0.5670     2.1360    -1.5570 ha         1 9A0       0.137000
     55 H23         -1.3870     2.1360    -3.8810 ha         1 9A0       0.151000
     56 H24          0.0560     0.9140    -6.4820 h1         1 9A0       0.099200
     57 H25          0.0770    -0.8550    -6.4900 h1         1 9A0       0.099200
     58 H26         -1.5050     0.9030    -8.4010 hc         1 9A0       0.051367
     59 H27         -1.4820    -0.8660    -8.4090 hc         1 9A0       0.051367
     60 H28         -0.0120     0.0390    -8.7940 hc         1 9A0       0.051367
     61 C20          7.8410    -0.4000     1.1730 c3         1 9A0      -0.088700
@<TRIPOS>BOND
     1    29    28 2
     2    28    30 2
     3    28    31 1
     4    28    27 1
     5    26    27 ar
     6    26    25 ar
     7    10     9 ar
     8    10    11 ar
     9     9     8 ar
    10    15    61 1
    11    32    31 1
    12    11    12 ar
    13    27    24 ar
    14    25    22 ar
    15     8     7 1
    16     8    13 ar
    17     7     6 1
    18    18    19 ar
    19    18    16 ar
    20    12    13 ar
    21    19     3 ar
    22    61     6 1
    23    61    16 1
    24    61    14 1
    25     6     5 2
    26    16    17 ar
    27    24    23 ar
    28    22    23 ar
    29    22     1 1
    30     3    20 1
    31     3     4 ar
    32    20     2 1
    33    17     4 ar
    34     1     2 1
    35     2    21 2
    36     1    33 1
    37     1    34 1
    38     4    35 1
    39     7    36 1
    40     9    37 1
    41    10    38 1
    42    11    39 1
    43    12    40 1
    44    13    41 1
    45    14    42 1
    46    14    43 1
    47    14    44 1
    48    15    45 1
    49    15    46 1
    50    15    47 1
    51    17    48 1
    52    18    49 1
    53    19    50 1
    54    20    51 1
    55    23    52 1
    56    24    53 1
    57    25    54 1
    58    26    55 1
    59    31    56 1
    60    31    57 1
    61    32    58 1
    62    32    59 1
    63    32    60 1
@<TRIPOS>SUBSTRUCTURE
     1 9A0         1 TEMP              0 ****  ****    0 ROOT
