@<TRIPOS>MOLECULE
9A3
   57    61     1     0     0
SMALL
bcc


@<TRIPOS>ATOM
      1 C14          0.0000     0.0000     0.0000 ca         1 9A3      -0.084300
      2 C12         -1.0060    -1.4210    -1.7390 cc         1 9A3       0.388600
      3 C10         -4.6700     0.3620    -6.7920 ca         1 9A3      -0.086000
      4 C11         -1.7290    -1.6970    -2.9910 cc         1 9A3      -0.158600
      5 C13         -0.7540    -0.0000    -1.3040 c3         1 9A3      -0.001400
      6 C15          1.3820     0.0000     0.0000 ca         1 9A3      -0.088000
      7 C01         -2.6080    -3.0980    -4.5120 c          1 9A3       0.456300
      8 C02         -2.8540    -1.6660    -4.9380 c3         1 9A3       0.248000
      9 C03         -4.3550    -1.3820    -5.0240 c3         1 9A3       0.057900
     10 C04         -4.5730     0.0480    -5.4490 ca         1 9A3      -0.057300
     11 C05         -4.6740     1.0440    -4.4960 ca         1 9A3      -0.086000
     12 C06         -4.8730     2.3550    -4.8860 ca         1 9A3      -0.043000
     13 C07         -4.9710     2.6700    -6.2280 ca         1 9A3      -0.209300
     14 C08         -5.1890     4.0990    -6.6540 c3         1 9A3       0.640200
     15 C09         -4.8640     1.6740    -7.1820 ca         1 9A3      -0.043000
     16 C16          2.0730     0.0000     1.1960 ca         1 9A3      -0.100500
     17 C17          1.3830    -0.0010     2.3930 ca         1 9A3      -0.102000
     18 C18          0.0000     0.0000     2.3950 ca         1 9A3      -0.100500
     19 C19         -0.6910     0.0060     1.1970 ca         1 9A3      -0.088000
     20 C20         -0.8000    -3.6910    -1.3730 cd         1 9A3       0.381800
     21 C21         -1.4570    -4.0050    -2.5190 cc         1 9A3      -0.287600
     22 C22         -0.3040    -4.7840    -0.5030 ca         1 9A3      -0.165500
     23 C23          0.3720    -4.4840     0.6780 ca         1 9A3      -0.063500
     24 C24          0.8320    -5.5030     1.4860 ca         1 9A3      -0.140500
     25 C25          0.6220    -6.8270     1.1240 ca         1 9A3       0.134100
     26 C26         -0.0520    -7.1290    -0.0520 ca         1 9A3      -0.140500
     27 C27         -0.5190    -6.1140    -0.8610 ca         1 9A3      -0.063500
     28 F01         -3.9510     4.7250    -6.8370 f          1 9A3      -0.208967
     29 F02         -5.9070     4.1250    -7.8540 f          1 9A3      -0.208967
     30 F03         -5.9110     4.7750    -5.6640 f          1 9A3      -0.208967
     31 N01         -1.9340    -3.0150    -3.3450 n          1 9A3       0.325800
     32 N02         -2.2370    -0.8670    -3.8700 n2         1 9A3      -0.319200
     33 N03         -0.5890    -2.4170    -1.0070 nd         1 9A3      -0.509000
     34 O01         -2.9460    -4.1050    -5.0950 o          1 9A3      -0.565500
     35 O02         -2.2220    -1.3990    -6.1910 os         1 9A3      -0.178800
     36 O03         -0.7870    -1.7140    -6.2150 oh         1 9A3      -0.409000
     37 O04          1.0770    -7.8280     1.9210 oh         1 9A3      -0.500100
     38 H2          -1.7010     0.5100    -1.1740 hc         1 9A3       0.040200
     39 H3          -0.1690     0.5100    -2.0600 hc         1 9A3       0.040200
     40 H4           1.9240     0.0010    -0.9380 ha         1 9A3       0.104000
     41 H5          -4.8070    -2.0480    -5.7500 hc         1 9A3       0.038700
     42 H6          -4.8090    -1.5440    -4.0540 hc         1 9A3       0.038700
     43 H7          -4.5970     0.7970    -3.4440 ha         1 9A3       0.115000
     44 H8          -4.9530     3.1370    -4.1400 ha         1 9A3       0.117000
     45 H9          -4.9400     1.9210    -8.2340 ha         1 9A3       0.117000
     46 H10          3.1570    -0.0000     1.1960 ha         1 9A3       0.102500
     47 H11          1.9250    -0.0030     3.3310 ha         1 9A3       0.102000
     48 H12         -0.5410     0.0020     3.3330 ha         1 9A3       0.102500
     49 H13         -1.7740     0.0060     1.1980 ha         1 9A3       0.104000
     50 H14         -1.6070    -5.0440    -2.7840 h4         1 9A3       0.161000
     51 H15          0.5370    -3.4520     0.9610 ha         1 9A3       0.118500
     52 H16          1.3580    -5.2700     2.4040 ha         1 9A3       0.116500
     53 H17         -0.2160    -8.1630    -0.3310 ha         1 9A3       0.116500
     54 H18         -1.0440    -6.3500    -1.7790 ha         1 9A3       0.118500
     55 H20         -0.4510    -1.5830    -7.0860 ho         1 9A3       0.414000
     56 H21          1.9220    -8.1140     1.6150 ho         1 9A3       0.404000
     57 H1          -4.5850    -0.4180    -7.5390 ha         1 9A3       0.115000
@<TRIPOS>BOND
     1     1     5 1   
     2     1     6 ar  
     3     1    19 ar  
     4     2     4 1   
     5     2     5 1   
     6     2    33 2   
     7     3    10 ar  
     8     3    15 ar  
     9     3    57 1   
    10     4    31 1   
    11     4    32 2   
    12     5    38 1   
    13     5    39 1   
    14     6    16 ar  
    15     6    40 1   
    16     7     8 1   
    17     7    31 1   
    18     7    34 2   
    19     8     9 1   
    20     8    32 1   
    21     8    35 1   
    22     9    10 1   
    23     9    41 1   
    24     9    42 1   
    25    10    11 ar  
    26    11    12 ar  
    27    11    43 1   
    28    12    13 ar  
    29    12    44 1   
    30    13    14 1   
    31    13    15 ar  
    32    14    28 1   
    33    14    29 1   
    34    14    30 1   
    35    15    45 1   
    36    16    17 ar  
    37    16    46 1   
    38    17    18 ar  
    39    17    47 1   
    40    18    19 ar  
    41    18    48 1   
    42    19    49 1   
    43    20    21 2   
    44    20    22 1   
    45    20    33 1   
    46    21    31 1   
    47    21    50 1   
    48    22    23 ar  
    49    22    27 ar  
    50    23    24 ar  
    51    23    51 1   
    52    24    25 ar  
    53    24    52 1   
    54    25    26 ar  
    55    25    37 1   
    56    26    27 ar  
    57    26    53 1   
    58    27    54 1   
    59    35    36 1   
    60    36    55 1   
    61    37    56 1   
@<TRIPOS>SUBSTRUCTURE
     1 9A3         1 TEMP              0 ****  ****    0 ROOT
