@<TRIPOS>MOLECULE
molecule
   57    61     1     0     0
SMALL
bcc


@<TRIPOS>ATOM
      1 C14          0.0000     0.0000     0.0000 ca         1 9A3      -0.075300
      2 C12         -1.0060    -1.4210    -1.7390 cc         1 9A3       0.445600
      3 C10         -4.6700     0.3620    -6.7920 ca         1 9A3      -0.110000
      4 C11         -1.7290    -1.6970    -2.9910 cc         1 9A3      -0.016600
      5 C13         -0.7540    -0.0000    -1.3040 c3         1 9A3      -0.066400
      6 C15          1.3820     0.0000     0.0000 ca         1 9A3      -0.112500
      7 C01         -2.6080    -3.0980    -4.5120 c          1 9A3       0.557300
      8 C02         -2.8540    -1.6660    -4.9380 c3         1 9A3       0.247000
      9 C03         -4.3550    -1.3820    -5.0240 c3         1 9A3       0.000900
     10 C04         -4.5730     0.0480    -5.4490 ca         1 9A3      -0.055300
     11 C05         -4.6740     1.0440    -4.4960 ca         1 9A3      -0.110000
     12 C06         -4.8730     2.3550    -4.8860 ca         1 9A3      -0.083000
     13 C07         -4.9710     2.6700    -6.2280 ca         1 9A3      -0.176300
     14 C08         -5.1890     4.0990    -6.6540 c3         1 9A3       0.673200
     15 C09         -4.8640     1.6740    -7.1820 ca         1 9A3      -0.083000
     16 C16          2.0730     0.0000     1.1960 ca         1 9A3      -0.128000
     17 C17          1.3830    -0.0010     2.3930 ca         1 9A3      -0.127000
     18 C18          0.0000     0.0000     2.3950 ca         1 9A3      -0.128000
     19 C19         -0.6910     0.0060     1.1970 ca         1 9A3      -0.112500
     20 C20         -0.8000    -3.6910    -1.3730 cd         1 9A3       0.389800
     21 C21         -1.4570    -4.0050    -2.5190 cc         1 9A3      -0.128600
     22 C22         -0.3040    -4.7840    -0.5030 ca         1 9A3      -0.142500
     23 C23          0.3720    -4.4840     0.6780 ca         1 9A3      -0.095500
     24 C24          0.8320    -5.5030     1.4860 ca         1 9A3      -0.154500
     25 C25          0.6220    -6.8270     1.1240 ca         1 9A3       0.112100
     26 C26         -0.0520    -7.1290    -0.0520 ca         1 9A3      -0.154500
     27 C27         -0.5190    -6.1140    -0.8610 ca         1 9A3      -0.095500
     28 F01         -3.9510     4.7250    -6.8370 f          1 9A3      -0.224300
     29 F02         -5.9070     4.1250    -7.8540 f          1 9A3      -0.224300
     30 F03         -5.9110     4.7750    -5.6640 f          1 9A3      -0.224300
     31 N01         -1.9340    -3.0150    -3.3450 n          1 9A3      -0.125200
     32 N02         -2.2370    -0.8670    -3.8700 n2         1 9A3      -0.340200
     33 N03         -0.5890    -2.4170    -1.0070 nd         1 9A3      -0.620000
     34 O01         -2.9460    -4.1050    -5.0950 o          1 9A3      -0.536500
     35 O02         -2.2220    -1.3990    -6.1910 os         1 9A3      -0.185800
     36 O03         -0.7870    -1.7140    -6.2150 oh         1 9A3      -0.413000
     37 O04          1.0770    -7.8280     1.9210 oh         1 9A3      -0.521100
     38 H2          -1.7010     0.5100    -1.1740 hc         1 9A3       0.077700
     39 H3          -0.1690     0.5100    -2.0600 hc         1 9A3       0.077700
     40 H4           1.9240     0.0010    -0.9380 ha         1 9A3       0.130000
     41 H5          -4.8070    -2.0480    -5.7500 hc         1 9A3       0.076700
     42 H6          -4.8090    -1.5440    -4.0540 hc         1 9A3       0.076700
     43 H7          -4.5970     0.7970    -3.4440 ha         1 9A3       0.142000
     44 H8          -4.9530     3.1370    -4.1400 ha         1 9A3       0.147000
     45 H9          -4.9400     1.9210    -8.2340 ha         1 9A3       0.147000
     46 H10          3.1570    -0.0000     1.1960 ha         1 9A3       0.130000
     47 H11          1.9250    -0.0030     3.3310 ha         1 9A3       0.129000
     48 H12         -0.5410     0.0020     3.3330 ha         1 9A3       0.130000
     49 H13         -1.7740     0.0060     1.1980 ha         1 9A3       0.130000
     50 H14         -1.6070    -5.0440    -2.7840 h4         1 9A3       0.182000
     51 H15          0.5370    -3.4520     0.9610 ha         1 9A3       0.146000
     52 H16          1.3580    -5.2700     2.4040 ha         1 9A3       0.144000
     53 H17         -0.2160    -8.1630    -0.3310 ha         1 9A3       0.144000
     54 H18         -1.0440    -6.3500    -1.7790 ha         1 9A3       0.146000
     55 H20         -0.4510    -1.5830    -7.0860 ho         1 9A3       0.425000
     56 H21          1.9220    -8.1140     1.6150 ho         1 9A3       0.421000
     57 H1          -4.5850    -0.4180    -7.5390 ha         1 9A3       0.142000
@<TRIPOS>BOND
     1    28    14 1
     2    30    14 1
     3    29    14 1
     4    14    13 1
     5    12    13 ar
     6    12    11 ar
     7    13    15 ar
     8    11    10 ar
     9    15     3 ar
    10    10     3 ar
    11    10     9 1
    12    34     7 2
    13     9     8 1
    14     7     8 1
    15     7    31 1
    16    21    31 1
    17    21    20 2
    18    26    27 ar
    19    26    25 ar
    20    27    22 ar
    21    36    35 1
    22     8    35 1
    23     8    32 1
    24    31     4 1
    25    37    25 1
    26    25    24 ar
    27    22    20 1
    28    22    23 ar
    29    20    33 1
    30     4    32 2
    31     4     2 1
    32    24    23 ar
    33    33     2 2
    34     2     5 1
    35    17    16 ar
    36    17    18 ar
    37    16     6 ar
    38    18    19 ar
    39     6     1 ar
    40    19     1 ar
    41     1     5 1
    42     3    57 1
    43     5    38 1
    44     5    39 1
    45     6    40 1
    46     9    41 1
    47     9    42 1
    48    11    43 1
    49    12    44 1
    50    15    45 1
    51    16    46 1
    52    17    47 1
    53    18    48 1
    54    19    49 1
    55    21    50 1
    56    23    51 1
    57    24    52 1
    58    26    53 1
    59    27    54 1
    60    36    55 1
    61    37    56 1
@<TRIPOS>SUBSTRUCTURE
     1 9A3         1 TEMP              0 ****  ****    0 ROOT
