@<TRIPOS>MOLECULE
molecule
   13    12     1     0     0
SMALL
bcc


@<TRIPOS>ATOM
      1 O01          0.0000     0.0000     0.0000 oh         1 9A4      -0.619800
      2 C02          1.4290     0.0000     0.0000 c3         1 9A4       0.357600
      3 C03          1.9320     0.0000     1.4210 c2         1 9A4      -0.258200
      4 C04          2.9060    -0.8020     1.7720 c2         1 9A4      -0.233200
      5 C05          3.5250    -1.7260     0.7530 c3         1 9A4       0.001100
      6 H011        -0.3140     0.4970    -0.7370 ho         1 9A4       0.410000
      7 H021         1.7900    -0.8840    -0.5110 h1         1 9A4       0.026700
      8 H022         1.7900     0.8850    -0.5110 h1         1 9A4       0.026700
      9 H031         1.2690    -0.7500     1.0060 ha         1 9A4       0.058000
     10 H041         3.6270    -0.4930     1.0240 ha         1 9A4       0.116000
     11 H051         2.8400    -2.5360     0.5380 hc         1 9A4       0.038033
     12 H053         4.4500    -2.1300     1.1470 hc         1 9A4       0.038033
     13 H052         3.7300    -1.1740    -0.1570 hc         1 9A4       0.038033
@<TRIPOS>BOND
     1     4     3 2
     2     4     5 1
     3     3     2 1
     4     1     2 1
     5     1     6 1
     6     2     7 1
     7     2     8 1
     8     3     9 1
     9     4    10 1
    10     5    11 1
    11     5    12 1
    12     5    13 1
@<TRIPOS>SUBSTRUCTURE
     1 9A4         1 TEMP              0 ****  ****    0 ROOT
