@<TRIPOS>MOLECULE
9A5
   74    78     1     0     0
SMALL
bcc


@<TRIPOS>ATOM
      1 CAT          0.0000     0.0000     0.0000 c3         1 9A5      -0.068700
      2 CAP          1.5270     0.0000     0.0000 c3         1 9A5      -0.027400
      3 CAQ          2.0120     0.0000     1.4550 c3         1 9A5      -0.029400
      4 CAU          1.6960     1.3640     2.0660 c3         1 9A5       0.039900
      5 CBE          0.2540     1.7280     1.8330 ca         1 9A5      -0.169600
      6 CBD         -0.5310     1.1040     0.8790 ca         1 9A5       0.404600
      7 NAW         -1.7940     1.4580     0.7020 nb         1 9A5      -0.570000
      8 CBG         -2.3800     2.4160     1.4200 ca         1 9A5       0.389600
      9 CAK         -3.7240     2.7670     1.2080 ca         1 9A5      -0.133300
     10 CBB         -4.2930     3.7500     1.9600 ca         1 9A5      -0.033600
     11 Cl          -5.9540     4.1780     1.6920 cl         1 9A5      -0.017400
     12 CAF         -3.5620     4.4170     2.9420 ca         1 9A5      -0.093000
     13 CAI         -2.2570     4.1030     3.1740 ca         1 9A5      -0.089000
     14 CBJ         -1.6410     3.0960     2.4180 ca         1 9A5      -0.175300
     15 CBF         -0.2910     2.7370     2.6220 ca         1 9A5       0.042600
     16 NAY          0.4750     3.3740     3.5870 nu         1 9A5      -0.481600
     17 CAS          1.0470     4.6230     3.0640 c3         1 9A5       0.159800
     18 CAO          1.9870     5.2290     4.1090 c3         1 9A5      -0.035400
     19 CAM          2.5820     6.5290     3.5640 c3         1 9A5      -0.024400
     20 CAL          3.5220     7.1350     4.6080 c3         1 9A5      -0.020400
     21 CAN          4.1170     8.4360     4.0650 c3         1 9A5      -0.041400
     22 CAR          5.0560     9.0430     5.1090 c3         1 9A5       0.036000
     23 NAX          5.6270    10.2870     4.5880 ns         1 9A5      -0.116900
     24 C            6.4880    11.0000     5.3400 c          1 9A5       0.542100
     25 O            6.7930    10.6110     6.4480 o          1 9A5      -0.644100
     26 CA           7.0760    12.2810     4.8050 c3         1 9A5      -0.156500
     27 N            7.5720    13.0960     5.9200 nz         1 9A5       0.083400
     28 CB           8.2320    11.9550     3.8570 c3         1 9A5       0.089800
     29 CG           8.7390    13.2270     3.2260 cc         1 9A5      -0.275400
     30 CD2          9.7270    14.1460     3.7940 ca         1 9A5      -0.116800
     31 CE3         10.4620    14.1700     4.9800 ca         1 9A5      -0.115000
     32 CZ3         11.3290    15.1990     5.2220 ca         1 9A5      -0.078000
     33 CH2         11.4840    16.2220     4.2970 ca         1 9A5      -0.072000
     34 CZ2         10.7680    16.2190     3.1200 ca         1 9A5      -0.065000
     35 CE2          9.8800    15.1810     2.8530 ca         1 9A5      -0.222200
     36 NE1          9.0420    14.8980     1.7980 na         1 9A5       0.395600
     37 CD1          8.3740    13.7280     2.0360 cd         1 9A5      -0.203100
     38 H1          -0.3560    -0.9530     0.3720 hc         1 9A5       0.032700
     39 H2          -0.3560     0.1490    -1.0120 hc         1 9A5       0.032700
     40 H3           1.8900     0.8870    -0.5040 hc         1 9A5       0.017700
     41 H4           1.8900    -0.8870    -0.5040 hc         1 9A5       0.017700
     42 H5           1.4970    -0.7750     2.0100 hc         1 9A5       0.018700
     43 H6           3.0810    -0.1720     1.4820 hc         1 9A5       0.018700
     44 H7           2.3310     2.1140     1.6090 hc         1 9A5       0.025200
     45 H8           1.8870     1.3290     3.1320 hc         1 9A5       0.025200
     46 H9          -4.3310     2.1950     0.5160 ha         1 9A5       0.132000
     47 H10         -4.0380     5.1950     3.5270 ha         1 9A5       0.113000
     48 H11         -1.6980     4.6280     3.9400 ha         1 9A5       0.104000
     49 H12          0.2220     3.3050     4.5530 hn         1 9A5       0.292800
     50 H13          1.6020     4.4140     2.1570 h1         1 9A5       0.013700
     51 H14          0.2490     5.3230     2.8470 h1         1 9A5       0.013700
     52 H15          2.7850     4.5290     4.3260 hc         1 9A5       0.020700
     53 H16          1.4320     5.4370     5.0160 hc         1 9A5       0.020700
     54 H17          3.1360     6.3210     2.6570 hc         1 9A5       0.017700
     55 H18          1.7840     7.2290     3.3470 hc         1 9A5       0.017700
     56 H19          2.9670     7.3440     5.5150 hc         1 9A5       0.022700
     57 H20          4.3200     6.4360     4.8250 hc         1 9A5       0.022700
     58 H21          3.3190     9.1350     3.8470 hc         1 9A5       0.020700
     59 H22          4.6710     8.2270     3.1580 hc         1 9A5       0.020700
     60 H23          4.5020     9.2520     6.0160 h1         1 9A5       0.041700
     61 H24          5.8540     8.3440     5.3270 h1         1 9A5       0.041700
     62 H25          5.3590    10.6210     3.6830 hn         1 9A5       0.179500
     63 H26          6.3130    12.8310     4.2670 hx         1 9A5       0.088700
     64 H27          8.4110    12.6890     6.2840 hn         1 9A5       0.233467
     65 H28          6.8790    13.1320     6.6410 hn         1 9A5       0.233467
     66 H30          7.8840    11.2820     3.0820 hc         1 9A5       0.049700
     67 H31          9.0330    11.4830     4.4130 hc         1 9A5       0.049700
     68 H32         10.3470    13.3740     5.7070 ha         1 9A5       0.083000
     69 H33         11.8990    15.2160     6.1430 ha         1 9A5       0.116000
     70 H34         12.1740    17.0300     4.5030 ha         1 9A5       0.121000
     71 H35         10.8960    17.0220     2.4040 ha         1 9A5       0.116000
     72 H36          8.9410    15.4610     0.9760 hn         1 9A5       0.132700
     73 H37          7.6580    13.2730     1.3630 h4         1 9A5       0.148000
     74 HN3          7.7500    14.0280     5.6000 hn         1 9A5       0.233467
@<TRIPOS>BOND
     1     1     2 1   
     2     1     6 1   
     3     1    38 1   
     4     1    39 1   
     5     2     3 1   
     6     2    40 1   
     7     2    41 1   
     8     3     4 1   
     9     3    42 1   
    10     3    43 1   
    11     4     5 1   
    12     4    44 1   
    13     4    45 1   
    14     5     6 ar  
    15     5    15 ar  
    16     6     7 ar  
    17     7     8 ar  
    18     8     9 ar  
    19     8    14 ar  
    20     9    10 ar  
    21     9    46 1   
    22    10    11 1   
    23    10    12 ar  
    24    12    13 ar  
    25    12    47 1   
    26    13    14 ar  
    27    13    48 1   
    28    14    15 ar  
    29    15    16 1   
    30    16    17 1   
    31    16    49 1   
    32    17    18 1   
    33    17    50 1   
    34    17    51 1   
    35    18    19 1   
    36    18    52 1   
    37    18    53 1   
    38    19    20 1   
    39    19    54 1   
    40    19    55 1   
    41    20    21 1   
    42    20    56 1   
    43    20    57 1   
    44    21    22 1   
    45    21    58 1   
    46    21    59 1   
    47    22    23 1   
    48    22    60 1   
    49    22    61 1   
    50    23    24 1   
    51    23    62 1   
    52    24    25 2   
    53    24    26 1   
    54    26    27 1   
    55    26    28 1   
    56    26    63 1   
    57    27    64 1   
    58    27    65 1   
    59    27    74 1   
    60    28    29 1   
    61    28    66 1   
    62    28    67 1   
    63    29    30 1   
    64    29    37 2   
    65    30    31 ar  
    66    30    35 ar  
    67    31    32 ar  
    68    31    68 1   
    69    32    33 ar  
    70    32    69 1   
    71    33    34 ar  
    72    33    70 1   
    73    34    35 ar  
    74    34    71 1   
    75    35    36 1   
    76    36    37 1   
    77    36    72 1   
    78    37    73 1   
@<TRIPOS>SUBSTRUCTURE
     1 9A5         1 TEMP              0 ****  ****    0 ROOT
