@<TRIPOS>MOLECULE
molecule
   74    78     1     0     0
SMALL
bcc


@<TRIPOS>ATOM
      1 CAT          0.0000     0.0000     0.0000 c3         1 9A5      -0.126700
      2 CAP          1.5270     0.0000     0.0000 c3         1 9A5      -0.084400
      3 CAQ          2.0120     0.0000     1.4550 c3         1 9A5      -0.086400
      4 CAU          1.6960     1.3640     2.0660 c3         1 9A5      -0.021100
      5 CBE          0.2540     1.7280     1.8330 ca         1 9A5      -0.182600
      6 CBD         -0.5310     1.1040     0.8790 ca         1 9A5       0.461600
      7 NAW         -1.7940     1.4580     0.7020 nb         1 9A5      -0.693000
      8 CBG         -2.3800     2.4160     1.4200 ca         1 9A5       0.438600
      9 CAK         -3.7240     2.7670     1.2080 ca         1 9A5      -0.156300
     10 CBB         -4.2930     3.7500     1.9600 ca         1 9A5       0.034400
     11 Cl          -5.9540     4.1780     1.6920 cl         1 9A5      -0.100400
     12 CAF         -3.5620     4.4170     2.9420 ca         1 9A5      -0.124000
     13 CAI         -2.2570     4.1030     3.1740 ca         1 9A5      -0.108000
     14 CBJ         -1.6410     3.0960     2.4180 ca         1 9A5      -0.190300
     15 CBF         -0.2910     2.7370     2.6220 ca         1 9A5       0.164600
     16 NAY          0.4750     3.3740     3.5870 nu         1 9A5      -0.824600
     17 CAS          1.0470     4.6230     3.0640 c3         1 9A5       0.216800
     18 CAO          1.9870     5.2290     4.1090 c3         1 9A5      -0.092400
     19 CAM          2.5820     6.5290     3.5640 c3         1 9A5      -0.079400
     20 CAL          3.5220     7.1350     4.6080 c3         1 9A5      -0.076400
     21 CAN          4.1170     8.4360     4.0650 c3         1 9A5      -0.102400
     22 CAR          5.0560     9.0430     5.1090 c3         1 9A5       0.105000
     23 NAX          5.6270    10.2870     4.5880 ns         1 9A5      -0.545900
     24 C            6.4880    11.0000     5.3400 c          1 9A5       0.632100
     25 O            6.7930    10.6110     6.4480 o          1 9A5      -0.597100
     26 CA           7.0760    12.2810     4.8050 c3         1 9A5       0.025500
     27 N            7.5720    13.0960     5.9200 nz         1 9A5      -0.789600
     28 CB           8.2320    11.9550     3.8570 c3         1 9A5      -0.005200
     29 CG           8.7390    13.2270     3.2260 cc         1 9A5      -0.255400
     30 CD2          9.7270    14.1460     3.7940 ca         1 9A5      -0.127800
     31 CE3         10.4620    14.1700     4.9800 ca         1 9A5      -0.138000
     32 CZ3         11.3290    15.1990     5.2220 ca         1 9A5      -0.117000
     33 CH2         11.4840    16.2220     4.2970 ca         1 9A5      -0.095000
     34 CZ2         10.7680    16.2190     3.1200 ca         1 9A5      -0.114000
     35 CE2          9.8800    15.1810     2.8530 ca         1 9A5      -0.030200
     36 NE1          9.0420    14.8980     1.7980 na         1 9A5      -0.160400
     37 CD1          8.3740    13.7280     2.0360 cd         1 9A5      -0.041100
     38 H1          -0.3560    -0.9530     0.3720 hc         1 9A5       0.068200
     39 H2          -0.3560     0.1490    -1.0120 hc         1 9A5       0.068200
     40 H3           1.8900     0.8870    -0.5040 hc         1 9A5       0.048200
     41 H4           1.8900    -0.8870    -0.5040 hc         1 9A5       0.048200
     42 H5           1.4970    -0.7750     2.0100 hc         1 9A5       0.048200
     43 H6           3.0810    -0.1720     1.4820 hc         1 9A5       0.048200
     44 H7           2.3310     2.1140     1.6090 hc         1 9A5       0.055700
     45 H8           1.8870     1.3290     3.1320 hc         1 9A5       0.055700
     46 H9          -4.3310     2.1950     0.5160 ha         1 9A5       0.166000
     47 H10         -4.0380     5.1950     3.5270 ha         1 9A5       0.143000
     48 H11         -1.6980     4.6280     3.9400 ha         1 9A5       0.131000
     49 H12          0.2220     3.3050     4.5530 hn         1 9A5       0.428800
     50 H13          1.6020     4.4140     2.1570 h1         1 9A5       0.038200
     51 H14          0.2490     5.3230     2.8470 h1         1 9A5       0.038200
     52 H15          2.7850     4.5290     4.3260 hc         1 9A5       0.050700
     53 H16          1.4320     5.4370     5.0160 hc         1 9A5       0.050700
     54 H17          3.1360     6.3210     2.6570 hc         1 9A5       0.046700
     55 H18          1.7840     7.2290     3.3470 hc         1 9A5       0.046700
     56 H19          2.9670     7.3440     5.5150 hc         1 9A5       0.051700
     57 H20          4.3200     6.4360     4.8250 hc         1 9A5       0.051700
     58 H21          3.3190     9.1350     3.8470 hc         1 9A5       0.050700
     59 H22          4.6710     8.2270     3.1580 hc         1 9A5       0.050700
     60 H23          4.5020     9.2520     6.0160 h1         1 9A5       0.069700
     61 H24          5.8540     8.3440     5.3270 h1         1 9A5       0.069700
     62 H25          5.3590    10.6210     3.6830 hn         1 9A5       0.325500
     63 H26          6.3130    12.8310     4.2670 hx         1 9A5       0.115700
     64 H27          8.4110    12.6890     6.2840 hn         1 9A5       0.463467
     65 H28          6.8790    13.1320     6.6410 hn         1 9A5       0.463467
     66 H30          7.8840    11.2820     3.0820 hc         1 9A5       0.090200
     67 H31          9.0330    11.4830     4.4130 hc         1 9A5       0.090200
     68 H32         10.3470    13.3740     5.7070 ha         1 9A5       0.105000
     69 H33         11.8990    15.2160     6.1430 ha         1 9A5       0.147000
     70 H34         12.1740    17.0300     4.5030 ha         1 9A5       0.155000
     71 H35         10.8960    17.0220     2.4040 ha         1 9A5       0.149000
     72 H36          8.9410    15.4610     0.9760 hn         1 9A5       0.319700
     73 H37          7.6580    13.2730     1.3630 h4         1 9A5       0.177000
     74 HN3          7.7500    14.0280     5.6000 hn         1 9A5       0.463467
@<TRIPOS>BOND
     1     2     3 1
     2     2     1 1
     3     3     4 1
     4     1     6 1
     5     4     5 1
     6     6     5 ar
     7     6     7 ar
     8     5    15 ar
     9     7     8 ar
    10    15    16 1
    11    15    14 ar
    12     8    14 ar
    13     8     9 ar
    14    16    17 1
    15    17    18 1
    16    14    13 ar
    17     9    10 ar
    18    13    12 ar
    19    18    19 1
    20    19    20 1
    21    10    12 ar
    22    10    11 1
    23    21    20 1
    24    21    22 1
    25    22    23 1
    26    23    24 1
    27    27    26 1
    28    24    25 2
    29    24    26 1
    30    26    28 1
    31    28    29 1
    32    29    37 2
    33    29    30 1
    34    37    36 1
    35    31    30 ar
    36    31    32 ar
    37    30    35 ar
    38    36    35 1
    39    35    34 ar
    40    32    33 ar
    41    34    33 ar
    42     1    38 1
    43     1    39 1
    44     2    40 1
    45     2    41 1
    46     3    42 1
    47     3    43 1
    48     4    44 1
    49     4    45 1
    50     9    46 1
    51    12    47 1
    52    13    48 1
    53    16    49 1
    54    17    50 1
    55    17    51 1
    56    18    52 1
    57    18    53 1
    58    19    54 1
    59    19    55 1
    60    20    56 1
    61    20    57 1
    62    21    58 1
    63    21    59 1
    64    22    60 1
    65    22    61 1
    66    23    62 1
    67    26    63 1
    68    27    64 1
    69    27    65 1
    70    28    66 1
    71    28    67 1
    72    31    68 1
    73    32    69 1
    74    33    70 1
    75    34    71 1
    76    36    72 1
    77    37    73 1
    78    74    27 1
@<TRIPOS>SUBSTRUCTURE
     1 9A5         1 TEMP              0 ****  ****    0 ROOT
