@<TRIPOS>MOLECULE
molecule
   13    12     1     0     0
SMALL
bcc


@<TRIPOS>ATOM
      1 O01          0.0000     0.0000     0.0000 oh         1 9A7      -0.606800
      2 C02          1.4290     0.0000     0.0000 c3         1 9A7       0.175600
      3 C03          1.9320     0.0000     1.4210 c2         1 9A7      -0.174200
      4 C04          2.9060    -0.8020     1.7710 c2         1 9A7      -0.168200
      5 C05          3.4090    -0.8030     3.1920 c3         1 9A7      -0.058900
      6 H011        -0.3140     0.0760    -0.8860 ho         1 9A7       0.401000
      7 H022         1.7910    -0.8850    -0.5110 h1         1 9A7       0.023700
      8 H021         1.7910     0.8850    -0.5110 h1         1 9A7       0.023700
      9 H031         1.4860     0.6630     2.1540 ha         1 9A7       0.137000
     10 H041         3.3510    -1.4650     1.0380 ha         1 9A7       0.121000
     11 H053         4.2760    -1.4470     3.2680 hc         1 9A7       0.042033
     12 H051         2.6290    -1.1670     3.8500 hc         1 9A7       0.042033
     13 H052         3.6810     0.2060     3.4790 hc         1 9A7       0.042033
@<TRIPOS>BOND
     1     5     4 1
     2     4     3 2
     3     3     2 1
     4     1     2 1
     5     1     6 1
     6     2     7 1
     7     2     8 1
     8     3     9 1
     9     4    10 1
    10     5    11 1
    11     5    12 1
    12     5    13 1
@<TRIPOS>SUBSTRUCTURE
     1 9A7         1 TEMP              0 ****  ****    0 ROOT
