@<TRIPOS>MOLECULE
molecule
   37    39     1     0     0
SMALL
bcc


@<TRIPOS>ATOM
      1 CAA          0.0000     0.0000     0.0000 c3         1 9A8      -0.105600
      2 CAB          1.5290     0.0000     0.0000 c3         1 9A8       0.135100
      3 CAC          2.0400     0.0000     1.4420 c3         1 9A8      -0.105600
      4 OAD          2.0060    -1.1660    -0.6740 os         1 9A8      -0.321900
      5 CAE          3.2490    -1.1010    -1.2170 ca         1 9A8       0.171100
      6 CAJ          3.7280    -2.1580    -1.9810 ca         1 9A8      -0.200500
      7 CAI          4.9880    -2.0940    -2.5340 ca         1 9A8      -0.049500
      8 CAF          4.0350     0.0270    -1.0140 ca         1 9A8      -0.200500
      9 CAG          5.2950     0.0990    -1.5640 ca         1 9A8      -0.049500
     10 CAH          5.7840    -0.9650    -2.3270 ca         1 9A8      -0.195900
     11 CAK          7.1350    -0.8920    -2.9180 cc         1 9A8       0.566500
     12 NAL          7.5580    -1.9040    -3.6330 nd         1 9A8      -0.656100
     13 CAM          8.7800    -1.9060    -4.2020 ca         1 9A8       0.204400
     14 CAR          9.2290    -2.9890    -4.9650 ca         1 9A8      -0.126000
     15 CAQ         10.4830    -2.9520    -5.5310 ca         1 9A8      -0.091000
     16 CAP         11.3110    -1.8510    -5.3520 ca         1 9A8      -0.158000
     17 CAO         10.8920    -0.7720    -4.6050 ca         1 9A8      -0.050000
     18 CAN          9.6260    -0.7880    -4.0240 ca         1 9A8      -0.211600
     19 CAS          9.1300     0.3360    -3.2180 c          1 9A8       0.709100
     20 OAT          9.8110     1.3280    -3.0280 o          1 9A8      -0.627500
     21 NAU          7.8840     0.2320    -2.6990 ns         1 9A8      -0.473400
     22 H1          -0.3610     0.8840     0.5110 hc         1 9A8       0.048700
     23 H2          -0.3610    -0.8850     0.5100 hc         1 9A8       0.048700
     24 H3          -0.3610     0.0000    -1.0210 hc         1 9A8       0.048700
     25 H4           1.8900     0.8850    -0.5110 h1         1 9A8       0.047700
     26 H5           2.5550     0.9320     1.6430 hc         1 9A8       0.048700
     27 H6           1.2030    -0.1040     2.1220 hc         1 9A8       0.048700
     28 H7           2.7240    -0.8280     1.5830 hc         1 9A8       0.048700
     29 H8           3.1110    -3.0330    -2.1420 ha         1 9A8       0.148000
     30 H9           5.3620    -2.9190    -3.1270 ha         1 9A8       0.146000
     31 H10          3.6550     0.8510    -0.4220 ha         1 9A8       0.148000
     32 H11          5.9080     0.9770    -1.4020 ha         1 9A8       0.146000
     33 H12          8.5910    -3.8530    -5.1110 ha         1 9A8       0.148000
     34 H13         10.8280    -3.7910    -6.1210 ha         1 9A8       0.134000
     35 H14         12.2950    -1.8410    -5.8060 ha         1 9A8       0.135000
     36 H15         11.5430     0.0830    -4.4700 ha         1 9A8       0.153000
     37 H16          7.5090     0.9810    -2.1500 hn         1 9A8       0.338500
@<TRIPOS>BOND
     1     3     2 1
     2     2     1 1
     3     2     4 1
     4     4     5 1
     5     5     6 ar
     6     5     8 ar
     7     6     7 ar
     8     8     9 ar
     9     7    10 ar
    10     9    10 ar
    11    10    11 1
    12    11    12 2
    13    11    21 1
    14    12    13 1
    15    21    19 1
    16    13    14 ar
    17    13    18 ar
    18    14    15 ar
    19    19    18 1
    20    19    20 2
    21    18    17 ar
    22    15    16 ar
    23    17    16 ar
    24     1    22 1
    25     1    23 1
    26     1    24 1
    27     2    25 1
    28     3    26 1
    29     3    27 1
    30     3    28 1
    31     6    29 1
    32     7    30 1
    33     8    31 1
    34     9    32 1
    35    14    33 1
    36    15    34 1
    37    16    35 1
    38    17    36 1
    39    21    37 1
@<TRIPOS>SUBSTRUCTURE
     1 9A8         1 TEMP              0 ****  ****    0 ROOT
