@<TRIPOS>MOLECULE
9A8
   37    39     1     0     0
SMALL
bcc


@<TRIPOS>ATOM
      1 CAA          0.0000     0.0000     0.0000 c3         1 9A8      -0.016600
      2 CAB          1.5290     0.0000     0.0000 c3         1 9A8       0.162100
      3 CAC          2.0400     0.0000     1.4420 c3         1 9A8      -0.016600
      4 OAD          2.0060    -1.1660    -0.6740 os         1 9A8      -0.297900
      5 CAE          3.2490    -1.1010    -1.2170 ca         1 9A8       0.178100
      6 CAJ          3.7280    -2.1580    -1.9810 ca         1 9A8      -0.186500
      7 CAI          4.9880    -2.0940    -2.5340 ca         1 9A8      -0.023000
      8 CAF          4.0350     0.0270    -1.0140 ca         1 9A8      -0.186500
      9 CAG          5.2950     0.0990    -1.5640 ca         1 9A8      -0.023000
     10 CAH          5.7840    -0.9650    -2.3270 ca         1 9A8      -0.208900
     11 CAK          7.1350    -0.8920    -2.9180 cc         1 9A8       0.371500
     12 NAL          7.5580    -1.9040    -3.6330 nd         1 9A8      -0.546100
     13 CAM          8.7800    -1.9060    -4.2020 ca         1 9A8       0.160400
     14 CAR          9.2290    -2.9890    -4.9650 ca         1 9A8      -0.102000
     15 CAQ         10.4830    -2.9520    -5.5310 ca         1 9A8      -0.062000
     16 CAP         11.3110    -1.8510    -5.3520 ca         1 9A8      -0.132000
     17 CAO         10.8920    -0.7720    -4.6050 ca         1 9A8      -0.014000
     18 CAN          9.6260    -0.7880    -4.0240 ca         1 9A8      -0.220600
     19 CAS          9.1300     0.3360    -3.2180 c          1 9A8       0.621100
     20 OAT          9.8110     1.3280    -3.0280 o          1 9A8      -0.668500
     21 NAU          7.8840     0.2320    -2.6990 ns         1 9A8      -0.019400
     22 H1          -0.3610     0.8840     0.5110 hc         1 9A8       0.014700
     23 H2          -0.3610    -0.8850     0.5100 hc         1 9A8       0.014700
     24 H3          -0.3610     0.0000    -1.0210 hc         1 9A8       0.014700
     25 H4           1.8900     0.8850    -0.5110 h1         1 9A8       0.019700
     26 H5           2.5550     0.9320     1.6430 hc         1 9A8       0.014700
     27 H6           1.2030    -0.1040     2.1220 hc         1 9A8       0.014700
     28 H7           2.7240    -0.8280     1.5830 hc         1 9A8       0.014700
     29 H8           3.1110    -3.0330    -2.1420 ha         1 9A8       0.126000
     30 H9           5.3620    -2.9190    -3.1270 ha         1 9A8       0.115500
     31 H10          3.6550     0.8510    -0.4220 ha         1 9A8       0.126000
     32 H11          5.9080     0.9770    -1.4020 ha         1 9A8       0.115500
     33 H12          8.5910    -3.8530    -5.1110 ha         1 9A8       0.118000
     34 H13         10.8280    -3.7910    -6.1210 ha         1 9A8       0.102000
     35 H14         12.2950    -1.8410    -5.8060 ha         1 9A8       0.107000
     36 H15         11.5430     0.0830    -4.4700 ha         1 9A8       0.123000
     37 H16          7.5090     0.9810    -2.1500 hn         1 9A8       0.189500
@<TRIPOS>BOND
     1     1     2 1   
     2     1    22 1   
     3     1    23 1   
     4     1    24 1   
     5     2     3 1   
     6     2     4 1   
     7     2    25 1   
     8     3    26 1   
     9     3    27 1   
    10     3    28 1   
    11     4     5 1   
    12     5     6 ar  
    13     5     8 ar  
    14     6     7 ar  
    15     6    29 1   
    16     7    10 ar  
    17     7    30 1   
    18     8     9 ar  
    19     8    31 1   
    20     9    10 ar  
    21     9    32 1   
    22    10    11 1   
    23    11    12 2   
    24    11    21 1   
    25    12    13 1   
    26    13    14 ar  
    27    13    18 ar  
    28    14    15 ar  
    29    14    33 1   
    30    15    16 ar  
    31    15    34 1   
    32    16    17 ar  
    33    16    35 1   
    34    17    18 ar  
    35    17    36 1   
    36    18    19 1   
    37    19    20 2   
    38    19    21 1   
    39    21    37 1   
@<TRIPOS>SUBSTRUCTURE
     1 9A8         1 TEMP              0 ****  ****    0 ROOT
