@<TRIPOS>MOLECULE
molecule
   33    34     1     0     0
SMALL
bcc


@<TRIPOS>ATOM
      1 C5           0.0000     0.0000     0.0000 ca         1 9AA      -0.057000
      2 C4           1.3820     0.0000     0.0000 ca         1 9AA      -0.261000
      3 C8           1.3840     0.0010     2.4020 ca         1 9AA      -0.256000
      4 C6          -0.6930     0.0010     1.1960 ca         1 9AA      -0.173300
      5 C3           2.0770     0.0000     1.2000 ca         1 9AA       0.187100
      6 C7          -0.0020     0.0010     2.3990 ca         1 9AA       0.204100
      7 C13         -4.2260     1.4670     1.3150 c          1 9AA       0.653500
      8 C16         -3.5020     2.6230    -0.4390 cs         1 9AA       0.584400
      9 C12         -2.7100     1.4380     1.3170 c3         1 9AA       0.208200
     10 C1           4.0830    -0.0010    -0.0740 c3         1 9AA       0.127700
     11 C10          0.0920     0.0030     4.7750 c3         1 9AA       0.125700
     12 C11         -2.2000     0.0010     1.1920 c3         1 9AA       0.001900
     13 N15         -4.5750     2.1940     0.2360 ns         1 9AA      -0.531500
     14 N18         -2.3480     2.2240     0.1250 ns         1 9AA      -0.530900
     15 O19         -2.1960     2.0510     2.5000 oh         1 9AA      -0.544800
     16 O2           3.4360    -0.0010     1.2000 os         1 9AA      -0.325900
     17 O9          -0.6850     0.0020     3.5740 os         1 9AA      -0.309900
     18 S17         -3.5900     3.5710    -1.8620 s          1 9AA      -0.607400
     19 H1          -0.5410    -0.0000    -0.9390 ha         1 9AA       0.137000
     20 H2           1.9220    -0.0010    -0.9390 ha         1 9AA       0.140000
     21 H3           1.9250     0.0010     3.3400 ha         1 9AA       0.153000
     22 H4           3.7910    -0.8850    -0.6270 h1         1 9AA       0.044033
     23 H5           3.7920     0.8840    -0.6270 h1         1 9AA       0.044033
     24 H6           5.1580    -0.0010     0.0670 h1         1 9AA       0.044033
     25 H7          -0.5700     0.0040     5.6330 h1         1 9AA       0.044367
     26 H8           0.7160     0.8880     4.8000 h1         1 9AA       0.044367
     27 H9           0.7160    -0.8820     4.8020 h1         1 9AA       0.044367
     28 H10         -2.5580    -0.4300     0.2650 hc         1 9AA       0.080200
     29 H11         -2.5630    -0.5850     2.0270 hc         1 9AA       0.080200
     30 H12         -5.5210     2.3880    -0.0290 hn         1 9AA       0.378500
     31 H13         -1.4230     2.4240    -0.2010 hn         1 9AA       0.391500
     32 H14         -2.6450     2.8660     2.6520 ho         1 9AA       0.412000
     33 O14         -4.9690     0.9420     2.1170 o          1 9AA      -0.534500
@<TRIPOS>BOND
     1     1     2 ar
     2     1     4 ar
     3     2     5 ar
     4    12     4 1
     5    12     9 1
     6     4     6 ar
     7    33     7 2
     8     5    16 1
     9     5     3 ar
    10    10    16 1
    11     6     3 ar
    12     6    17 1
    13     7     9 1
    14     7    13 1
    15    17    11 1
    16     9    15 1
    17     9    14 1
    18    13     8 1
    19    14     8 1
    20     8    18 2
    21     1    19 1
    22     2    20 1
    23     3    21 1
    24    10    22 1
    25    10    23 1
    26    10    24 1
    27    11    25 1
    28    11    26 1
    29    11    27 1
    30    12    28 1
    31    12    29 1
    32    13    30 1
    33    14    31 1
    34    15    32 1
@<TRIPOS>SUBSTRUCTURE
     1 9AA         1 TEMP              0 ****  ****    0 ROOT
