@<TRIPOS>MOLECULE
9AA
   33    34     1     0     0
SMALL
bcc


@<TRIPOS>ATOM
      1 C5           0.0000     0.0000     0.0000 ca         1 9AA      -0.023000
      2 C4           1.3820     0.0000     0.0000 ca         1 9AA      -0.253000
      3 C8           1.3840     0.0010     2.4020 ca         1 9AA      -0.255000
      4 C6          -0.6930     0.0010     1.1960 ca         1 9AA      -0.201300
      5 C3           2.0770     0.0000     1.2000 ca         1 9AA       0.204100
      6 C7          -0.0020     0.0010     2.3990 ca         1 9AA       0.220100
      7 C13         -4.2260     1.4670     1.3150 c          1 9AA       0.552500
      8 C16         -3.5020     2.6230    -0.4390 cs         1 9AA       0.281400
      9 C12         -2.7100     1.4380     1.3170 c3         1 9AA       0.096200
     10 C1           4.0830    -0.0010    -0.0740 c3         1 9AA       0.243700
     11 C10          0.0920     0.0030     4.7750 c3         1 9AA       0.240700
     12 C11         -2.2000     0.0010     1.1920 c3         1 9AA       0.060900
     13 N15         -4.5750     2.1940     0.2360 ns         1 9AA      -0.070500
     14 N18         -2.3480     2.2240     0.1250 ns         1 9AA      -0.089900
     15 O19         -2.1960     2.0510     2.5000 oh         1 9AA      -0.526800
     16 O2           3.4360    -0.0010     1.2000 os         1 9AA      -0.306900
     17 O9          -0.6850     0.0020     3.5740 os         1 9AA      -0.290900
     18 S17         -3.5900     3.5710    -1.8620 s          1 9AA      -0.637400
     19 H1          -0.5410    -0.0000    -0.9390 ha         1 9AA       0.105000
     20 H2           1.9220    -0.0010    -0.9390 ha         1 9AA       0.127000
     21 H3           1.9250     0.0010     3.3400 ha         1 9AA       0.138000
     22 H4           3.7910    -0.8850    -0.6270 h1         1 9AA      -0.000300
     23 H5           3.7920     0.8840    -0.6270 h1         1 9AA      -0.000300
     24 H6           5.1580    -0.0010     0.0670 h1         1 9AA      -0.000300
     25 H7          -0.5700     0.0040     5.6330 h1         1 9AA       0.000367
     26 H8           0.7160     0.8880     4.8000 h1         1 9AA       0.000367
     27 H9           0.7160    -0.8820     4.8020 h1         1 9AA       0.000367
     28 H10         -2.5580    -0.4300     0.2650 hc         1 9AA       0.045200
     29 H11         -2.5630    -0.5850     2.0270 hc         1 9AA       0.045200
     30 H12         -5.5210     2.3880    -0.0290 hn         1 9AA       0.220500
     31 H13         -1.4230     2.4240    -0.2010 hn         1 9AA       0.241500
     32 H14         -2.6450     2.8660     2.6520 ho         1 9AA       0.395000
     33 O14         -4.9690     0.9420     2.1170 o          1 9AA      -0.560500
@<TRIPOS>BOND
     1     1     2 ar  
     2     1     4 ar  
     3     1    19 1   
     4     2     5 ar  
     5     2    20 1   
     6     3     5 ar  
     7     3     6 ar  
     8     3    21 1   
     9     4     6 ar  
    10     4    12 1   
    11     5    16 1   
    12     6    17 1   
    13     7     9 1   
    14     7    13 1   
    15     7    33 2   
    16     8    13 1   
    17     8    14 1   
    18     8    18 2   
    19     9    12 1   
    20     9    14 1   
    21     9    15 1   
    22    10    16 1   
    23    10    22 1   
    24    10    23 1   
    25    10    24 1   
    26    11    17 1   
    27    11    25 1   
    28    11    26 1   
    29    11    27 1   
    30    12    28 1   
    31    12    29 1   
    32    13    30 1   
    33    14    31 1   
    34    15    32 1   
@<TRIPOS>SUBSTRUCTURE
     1 9AA         1 TEMP              0 ****  ****    0 ROOT
