@<TRIPOS>MOLECULE
9AC
   25    27     1     0     0
SMALL
bcc


@<TRIPOS>ATOM
      1 C1          0.0120   -0.0430   -0.0220 ca        1 9AC     -0.123500
      2 C2          1.3760   -0.0640   -0.0510 ca        1 9AC     -0.114500
      3 C3          2.1250   -0.0570    1.1610 ca        1 9AC     -0.122500
      4 C4          1.4980   -0.0320    2.3700 ca        1 9AC     -0.166300
      5 C5         -2.5390    0.0350    5.0250 ca        1 9AC     -0.166300
      6 C6         -3.8970    0.0350    5.1220 ca        1 9AC     -0.122500
      7 C7         -4.7150    0.0160    3.9550 ca        1 9AC     -0.114500
      8 C8         -4.1510    0.0020    2.7140 ca        1 9AC     -0.123500
      9 C9         -2.1000    0.0060    1.2970 ca        1 9AC     -0.125600
     10 N10        -0.5410    0.0090    3.6670 nb        1 9AC     -0.641000
     11 C11        -1.8930    0.0170    3.7300 ca        1 9AC      0.410100
     12 C12        -2.7290    0.0050    2.5530 ca        1 9AC     -0.111800
     13 C13        -0.6960   -0.0120    1.2200 ca        1 9AC     -0.111800
     14 C14         0.0530   -0.0120    2.4510 ca        1 9AC      0.410100
     15 C15        -2.8870    0.0700    0.0460 c         1 9AC      0.573500
     16 O16        -3.8170   -0.6860   -0.2340 o         1 9AC     -0.508100
     17 H1         -0.5660   -0.0600   -0.9590 ha        1 9AC      0.143000
     18 H2          1.9200   -0.0890   -1.0080 ha        1 9AC      0.138500
     19 H3          3.2240   -0.0730    1.0990 ha        1 9AC      0.139000
     20 H4          2.0730   -0.0300    3.3100 ha        1 9AC      0.153500
     21 H5         -1.9030    0.0470    5.9250 ha        1 9AC      0.153500
     22 H6         -4.3890    0.0490    6.1080 ha        1 9AC      0.139000
     23 H7         -5.8090    0.0090    4.0770 ha        1 9AC      0.138500
     24 H8         -4.7770   -0.0290    1.8080 ha        1 9AC      0.143000
     25 H9         -2.5710    0.8820   -0.6500 h4        1 9AC      0.008200
@<TRIPOS>BOND
     1    1    2 ar  
     2    1   13 ar  
     3    1   17 1   
     4    2    3 ar  
     5    2   18 1   
     6    3    4 ar  
     7    3   19 1   
     8    4   14 ar  
     9    4   20 1   
    10    5    6 ar  
    11    5   11 ar  
    12    5   21 1   
    13    6    7 ar  
    14    6   22 1   
    15    7    8 ar  
    16    7   23 1   
    17    8   12 ar  
    18    8   24 1   
    19    9   12 ar  
    20    9   13 ar  
    21    9   15 1   
    22   10   11 ar  
    23   10   14 ar  
    24   11   12 ar  
    25   13   14 ar  
    26   15   16 2   
    27   15   25 1   
@<TRIPOS>SUBSTRUCTURE
     1 9AC         1 TEMP              0 ****  ****    0 ROOT
