@<TRIPOS>MOLECULE
molecule
   25    27     1     0     0
SMALL
bcc


@<TRIPOS>ATOM
      1 C1           0.0000     0.0000     0.0000 ca         1 9AC      -0.130500
      2 C2           1.3600     0.0000     0.0000 ca         1 9AC      -0.111500
      3 C3           2.0890     0.0000     1.1890 ca         1 9AC      -0.122500
      4 C4           1.4800    -0.0010     2.4020 ca         1 9AC      -0.161300
      5 C5          -2.5120    -0.0020     5.0030 ca         1 9AC      -0.161300
      6 C6          -3.8680    -0.0030     5.0710 ca         1 9AC      -0.122500
      7 C7          -4.6610    -0.0030     3.9240 ca         1 9AC      -0.111500
      8 C8          -4.1120    -0.0020     2.6780 ca         1 9AC      -0.130500
      9 C9          -2.1040     0.0010     1.2650 ca         1 9AC      -0.152600
     10 N10         -0.5520    -0.0020     3.6470 nb         1 9AC      -0.650000
     11 C11         -1.8750    -0.0020     3.7410 ca         1 9AC       0.417600
     12 C12         -2.7150    -0.0010     2.5380 ca         1 9AC      -0.103800
     13 C13         -0.6930    -0.0040     1.2210 ca         1 9AC      -0.103800
     14 C14          0.0680    -0.0020     2.4750 ca         1 9AC       0.417600
     15 C15         -2.9050     0.0020     0.0360 c          1 9AC       0.587500
     16 O16         -4.1120    -0.0990     0.0990 o          1 9AC      -0.526100
     17 H1          -0.5450    -0.0000    -0.9360 ha         1 9AC       0.159500
     18 H2           1.8890     0.0010    -0.9450 ha         1 9AC       0.133500
     19 H3           3.1710     0.0000     1.1430 ha         1 9AC       0.134000
     20 H4           2.0720    -0.0010     3.3090 ha         1 9AC       0.151000
     21 H5          -1.9210    -0.0020     5.9110 ha         1 9AC       0.151000
     22 H6          -4.3470    -0.0040     6.0430 ha         1 9AC       0.134000
     23 H7          -5.7390    -0.0030     4.0260 ha         1 9AC       0.133500
     24 H8          -4.7480    -0.0020     1.8020 ha         1 9AC       0.159500
     25 H9          -2.4210     0.1160    -0.9260 h4         1 9AC       0.008200
@<TRIPOS>BOND
     1     1     2 ar
     2     1    13 ar
     3     1    17 1
     4     2     3 ar
     5     2    18 1
     6     3     4 ar
     7     3    19 1
     8     4    14 ar
     9     4    20 1
    10     5     6 ar
    11     5    11 ar
    12     5    21 1
    13     6     7 ar
    14     6    22 1
    15     7     8 ar
    16     7    23 1
    17     8    12 ar
    18     8    24 1
    19     9    12 ar
    20     9    13 ar
    21     9    15 1
    22    10    11 ar
    23    10    14 ar
    24    11    12 ar
    25    13    14 ar
    26    15    16 2
    27    15    25 1
@<TRIPOS>SUBSTRUCTURE
     1 9AC         1 TEMP              0 ****  ****    0 ROOT
