@<TRIPOS>MOLECULE
molecule
   43    45     1     0     0
SMALL
bcc


@<TRIPOS>ATOM
      1 C1           0.0000     0.0000     0.0000 ca         1 9AD      -0.072000
      2 C2           1.3620     0.0000     0.0000 ca         1 9AD      -0.155000
      3 C3           2.0910     0.0000     1.1790 ca         1 9AD      -0.086000
      4 C4           1.4490     0.0010     2.4110 ca         1 9AD      -0.183900
      5 C5          -2.6610     0.0030     4.8970 ca         1 9AD      -0.164300
      6 C6          -4.0200     0.0040     4.9410 ca         1 9AD      -0.119000
      7 C7          -4.7790     0.0030     3.7710 ca         1 9AD      -0.132000
      8 C8          -4.1780     0.0020     2.5500 ca         1 9AD      -0.106000
      9 C9          -2.1270     0.0010     1.2140 ca         1 9AD       0.231600
     10 N10         -0.6670     0.0010     3.5960 nb         1 9AD      -0.641000
     11 C11         -0.7160    -0.0000     1.2060 ca         1 9AD      -0.190300
     12 C12         -0.0150    -0.0060     2.4420 ca         1 9AD       0.468600
     13 C13         -2.7760     0.0000     2.4640 ca         1 9AD      -0.178300
     14 C14         -2.0000     0.0010     3.6520 ca         1 9AD       0.443600
     15 N9          -2.8450    -0.0000     0.0390 nv         1 9AD      -0.984200
     16 CD1          2.2250     0.0010     3.6610 c          1 9AD       0.668700
     17 OD1          1.6500     0.0010     4.7330 o          1 9AD      -0.563100
     18 ND1          3.5720     0.0020     3.6190 ns         1 9AD      -0.595900
     19 ND2          6.6140     0.0030     5.7840 n3         1 9AD      -0.665600
     20 CD2          4.3440     0.0010     4.8630 c3         1 9AD       0.114000
     21 CD3          5.8390     0.0020     4.5370 c3         1 9AD       0.115800
     22 CD7          8.0310     0.0030     5.4010 c3         1 9AD       0.120600
     23 CD8          6.3540     1.2890     6.4420 c3         1 9AD       0.120600
     24 H1          -0.5360     0.0000    -0.9420 ha         1 9AD       0.138000
     25 H2           1.8900    -0.0010    -0.9460 ha         1 9AD       0.131000
     26 H3           3.1740    -0.0000     1.1390 ha         1 9AD       0.126000
     27 H5          -2.0880     0.0040     5.8160 ha         1 9AD       0.158000
     28 H6          -4.5220     0.0050     5.9020 ha         1 9AD       0.133000
     29 H7          -5.8610     0.0040     3.8350 ha         1 9AD       0.129000
     30 H8          -4.7790     0.0010     1.6490 ha         1 9AD       0.136000
     31 H9A         -3.1060    -0.8670    -0.3870 hn         1 9AD       0.436800
     32 H9B         -3.1060     0.8660    -0.3880 hn         1 9AD       0.436800
     33 HD1          4.0450    -0.0050     2.7370 hn         1 9AD       0.306500
     34 HD21         4.1000     0.8850     5.4400 h1         1 9AD       0.061700
     35 HD22         4.1010    -0.8830     5.4380 h1         1 9AD       0.061700
     36 HD31         6.0830    -0.8820     3.9610 h1         1 9AD       0.037200
     37 HD32         6.0820     0.8870     3.9610 h1         1 9AD       0.037200
     38 HD71         8.2500     0.8930     4.8230 h1         1 9AD       0.037033
     39 HD72         8.6460    -0.0080     6.2930 h1         1 9AD       0.037033
     40 HD73         8.2450    -0.8760     4.8050 h1         1 9AD       0.037033
     41 HD81         6.1910     2.0530     5.6910 h1         1 9AD       0.037033
     42 HD82         7.2060     1.5600     7.0540 h1         1 9AD       0.037033
     43 HD83         5.4730     1.2040     7.0670 h1         1 9AD       0.037033
@<TRIPOS>BOND
     1     1     2 ar
     2     1    11 ar
     3     1    24 1
     4     2     3 ar
     5     2    25 1
     6     3     4 ar
     7     3    26 1
     8     4    12 ar
     9     4    16 1
    10     5     6 ar
    11     5    14 ar
    12     5    27 1
    13     6     7 ar
    14     6    28 1
    15     7     8 ar
    16     7    29 1
    17     8    13 ar
    18     8    30 1
    19     9    11 ar
    20     9    13 ar
    21     9    15 1
    22    10    12 ar
    23    10    14 ar
    24    11    12 ar
    25    13    14 ar
    26    15    31 1
    27    15    32 1
    28    16    17 2
    29    16    18 1
    30    18    20 1
    31    18    33 1
    32    19    21 1
    33    19    22 1
    34    19    23 1
    35    20    21 1
    36    20    34 1
    37    20    35 1
    38    21    36 1
    39    21    37 1
    40    22    38 1
    41    22    39 1
    42    22    40 1
    43    23    41 1
    44    23    42 1
    45    23    43 1
@<TRIPOS>SUBSTRUCTURE
     1 9AD         1 TEMP              0 ****  ****    0 ROOT
