@<TRIPOS>MOLECULE
molecule
   37    36     1     0     0
SMALL
bcc


@<TRIPOS>ATOM
      1 N1           0.0000     0.0000     0.0000 n7         1 9AE      -0.817200
      2 C2           1.4690     0.0000     0.0000 c3         1 9AE       0.161500
      3 C3           1.9790    -1.2490    -0.7210 c3         1 9AE      -0.099400
      4 C4           1.5750    -1.1880    -2.1950 c3         1 9AE      -0.089400
      5 C6           1.6810    -2.3770    -4.3910 c3         1 9AE      -0.078700
      6 C7           2.2960    -3.5620    -5.1380 c3         1 9AE      -0.085600
      7 C8           0.1560    -2.4380    -4.5040 c3         1 9AE      -0.085600
      8 C9           1.9780     0.0000     1.4430 c3         1 9AE      -0.081100
      9 C10         -0.5260     1.2900    -0.4650 c3         1 9AE       0.159500
     10 C12         -1.9130     1.0840    -1.0780 c3         1 9AE      -0.091600
     11 C11         -0.6300     2.2560     0.7180 c3         1 9AE      -0.091600
     12 C5           2.0850    -2.4370    -2.9160 c3         1 9AE      -0.080400
     13 H1          -0.3340    -0.7310    -0.5970 hn         1 9AE       0.356800
     14 H3           1.8300     0.8850    -0.5100 h1         1 9AE       0.037700
     15 H4           3.0590    -1.2940    -0.6450 hc         1 9AE       0.050200
     16 H5           1.5480    -2.1310    -0.2650 hc         1 9AE       0.050200
     17 H6           2.0070    -0.3060    -2.6520 hc         1 9AE       0.040700
     18 H7           0.4950    -1.1420    -2.2720 hc         1 9AE       0.040700
     19 H8           2.1040    -1.4540    -4.7670 hc         1 9AE       0.049700
     20 H9           1.9090    -4.4870    -4.7290 hc         1 9AE       0.033867
     21 H10          3.3730    -3.5390    -5.0260 hc         1 9AE       0.033867
     22 H11          2.0410    -3.4970    -6.1890 hc         1 9AE       0.033867
     23 H12         -0.2400    -3.0640    -3.7140 hc         1 9AE       0.033867
     24 H13         -0.1180    -2.8530    -5.4660 hc         1 9AE       0.033867
     25 H14         -0.2530    -1.4380    -4.4130 hc         1 9AE       0.033867
     26 H15          1.3260    -0.6100     2.0560 hc         1 9AE       0.037367
     27 H16          1.9860     1.0140     1.8230 hc         1 9AE       0.037367
     28 H17          2.9830    -0.4040     1.4710 hc         1 9AE       0.037367
     29 H18          0.1410     1.7050    -1.2120 h1         1 9AE       0.023700
     30 H19         -1.8170     0.5510    -2.0160 hc         1 9AE       0.038367
     31 H20         -2.5270     0.5080    -0.3960 hc         1 9AE       0.038367
     32 H21         -2.3760     2.0470    -1.2560 hc         1 9AE       0.038367
     33 H22          0.3420     2.6900     0.9160 hc         1 9AE       0.038367
     34 H23         -0.9710     1.7170     1.5940 hc         1 9AE       0.038367
     35 H24         -1.3350     3.0430     0.4810 hc         1 9AE       0.038367
     36 H25          1.6530    -3.3190    -2.4590 hc         1 9AE       0.042200
     37 H26          3.1640    -2.4830    -2.8390 hc         1 9AE       0.042200
@<TRIPOS>BOND
     1     8     2 1
     2     2     1 1
     3     2     3 1
     4    11     9 1
     5     6     5 1
     6     1     9 1
     7     3     4 1
     8     4    12 1
     9     5    12 1
    10     5     7 1
    11     9    10 1
    12     1    13 1
    13     2    14 1
    14     3    15 1
    15     3    16 1
    16     4    17 1
    17     4    18 1
    18     5    19 1
    19     6    20 1
    20     6    21 1
    21     6    22 1
    22     7    23 1
    23     7    24 1
    24     7    25 1
    25     8    26 1
    26     8    27 1
    27     8    28 1
    28     9    29 1
    29    10    30 1
    30    10    31 1
    31    10    32 1
    32    11    33 1
    33    11    34 1
    34    11    35 1
    35    12    36 1
    36    12    37 1
@<TRIPOS>SUBSTRUCTURE
     1 9AE         1 TEMP              0 ****  ****    0 ROOT
