@<TRIPOS>MOLECULE
molecule
   85    88     1     0     0
SMALL
bcc


@<TRIPOS>ATOM
      1 C1           0.0000     0.0000     0.0000 c          1 9AF       0.667800
      2 C10          2.1490     0.0000     1.3100 c3         1 9AF       0.130000
      3 C11          2.0890     1.3810     1.9120 ca         1 9AF      -0.072300
      4 C12          2.6410     2.4540     1.2370 ca         1 9AF      -0.119000
      5 C13          2.5870     3.7220     1.7860 ca         1 9AF      -0.114000
      6 C2           1.4150     0.0000     0.0000 ce         1 9AF      -0.241900
      7 C3           2.0720    -0.0010    -1.1720 c2         1 9AF       0.159800
      8 C4           1.2930     0.0080    -2.4630 c3         1 9AF      -0.068900
      9 C5           4.1570    -0.3760    -0.1030 c2         1 9AF       0.159800
     10 C6           5.6050    -0.7660    -0.2510 c3         1 9AF      -0.068900
     11 C7           3.5870    -0.3900     1.1140 ce         1 9AF      -0.241900
     12 C8           4.3560    -0.7820     2.2340 c          1 9AF       0.667800
     13 C9           6.0150    -0.3980     3.8830 c3         1 9AF       0.134700
     14 N2          -0.3670     4.4230     6.4030 ns         1 9AF      -0.603900
     15 O1          -0.6080    -1.0370     0.1850 o          1 9AF      -0.541500
     16 O2           4.1910    -1.8800     2.7320 o          1 9AF      -0.541500
     17 O3           5.2740     0.0620     2.7510 os         1 9AF      -0.418900
     18 O4          -0.0290     4.9970     4.2840 o          1 9AF      -0.646100
     19 C16          0.1320     4.1840     5.1740 c          1 9AF       0.781100
     20 C15          1.4240     2.8450     3.6900 ca         1 9AF       0.071600
     21 C14          1.9800     3.9210     3.0100 ca         1 9AF      -0.123000
     22 C32          1.4750     1.5740     3.1340 ca         1 9AF      -0.151000
     23 N            3.4400    -0.0090    -1.2090 nu         1 9AF      -0.631800
     24 O           -0.6750     1.1520    -0.2000 os         1 9AF      -0.418900
     25 C           -2.1010     1.0780    -0.1870 c3         1 9AF       0.134700
     26 C17         -1.1020     5.6630     6.6670 c3         1 9AF       0.129000
     27 C18         -1.5570     5.6860     8.1280 c3         1 9AF      -0.104400
     28 C19         -2.3240     6.9800     8.4020 c3         1 9AF       0.167800
     29 N3          -2.7600     7.0020     9.8040 n3         1 9AF      -0.732600
     30 C31         -3.2900     8.3210    10.1710 c3         1 9AF       0.161800
     31 C30         -3.5980     8.3520    11.6690 c3         1 9AF      -0.070900
     32 C22         -4.6210     7.2610    11.9980 c3         1 9AF      -0.026400
     33 C21         -4.0650     5.9030    11.5630 c3         1 9AF      -0.070900
     34 C20         -3.7440     5.9440    10.0670 c3         1 9AF       0.161800
     35 C23         -4.8850     7.2470    13.4810 ca         1 9AF      -0.043300
     36 C29         -6.1630     7.4680    13.9580 ca         1 9AF      -0.156000
     37 C27         -6.4050     7.4490    15.3240 ca         1 9AF       0.142100
     38 O5          -7.6620     7.6650    15.7950 os         1 9AF      -0.329900
     39 C28         -7.8380     7.6310    17.2120 c3         1 9AF       0.129700
     40 C26         -5.3640     7.2100    16.2070 ca         1 9AF      -0.224000
     41 C25         -4.0870     6.9900    15.7260 ca         1 9AF      -0.088000
     42 C24         -3.8480     7.0090    14.3650 ca         1 9AF      -0.163000
     43 H1           1.6780    -0.7080     1.9810 hc         1 9AF       0.080700
     44 H2           3.1180     2.3010     0.2760 ha         1 9AF       0.128000
     45 H3           3.0210     4.5600     1.2540 ha         1 9AF       0.130000
     46 H5           1.9700    -0.1480    -3.2940 hc         1 9AF       0.061033
     47 H6           0.7950     0.9630    -2.5770 hc         1 9AF       0.061033
     48 H7           0.5550    -0.7840    -2.4440 hc         1 9AF       0.061033
     49 H9           5.8430    -0.8780    -1.3020 hc         1 9AF       0.061033
     50 H10          6.2330     0.0030     0.1810 hc         1 9AF       0.061033
     51 H11          5.7800    -1.7050     0.2600 hc         1 9AF       0.061033
     52 H13          5.3370    -0.5850     4.7070 h1         1 9AF       0.045700
     53 H14          6.7360     0.3560     4.1730 h1         1 9AF       0.045700
     54 H15          6.5330    -1.3140     3.6260 h1         1 9AF       0.045700
     55 H16          0.8930     2.3500     5.6480 hn         1 9AF       0.316500
     56 H17         -0.2220     3.7610     7.1400 hn         1 9AF       0.307500
     57 H18          1.9380     4.9150     3.4390 ha         1 9AF       0.159000
     58 H19          1.0720     0.7280     3.6780 ha         1 9AF       0.131000
     59 H20         -2.4360     0.7370     0.7850 h1         1 9AF       0.045700
     60 H21         -2.5160     2.0590    -0.3880 h1         1 9AF       0.045700
     61 H22         -2.4340     0.3830    -0.9480 h1         1 9AF       0.045700
     62 H23         -0.4580     6.5130     6.4760 h1         1 9AF       0.053200
     63 H24         -1.9680     5.7140     6.0180 h1         1 9AF       0.053200
     64 H25         -2.2010     4.8360     8.3190 hc         1 9AF       0.053200
     65 H26         -0.6900     5.6350     8.7760 hc         1 9AF       0.053200
     66 H27         -1.6800     7.8300     8.2110 h1         1 9AF       0.037700
     67 H28         -3.1910     7.0310     7.7540 h1         1 9AF       0.037700
     68 H30         -2.5540     9.0820     9.9400 h1         1 9AF       0.034950
     69 H31         -4.2000     8.5110     9.6140 h1         1 9AF       0.034950
     70 H32         -2.6870     8.1720    12.2280 hc         1 9AF       0.053450
     71 H33         -4.0050     9.3200    11.9340 hc         1 9AF       0.053450
     72 H34         -5.5430     7.4600    11.4640 hc         1 9AF       0.055700
     73 H35         -3.1600     5.6890    12.1200 hc         1 9AF       0.053450
     74 H36         -4.8030     5.1330    11.7530 hc         1 9AF       0.053450
     75 H37         -4.6500     6.1490     9.5100 h1         1 9AF       0.034950
     76 H38         -3.3340     4.9880     9.7610 h1         1 9AF       0.034950
     77 H39         -6.9650     7.7050    13.2690 ha         1 9AF       0.143000
     78 H40         -7.2200     8.3930    17.6710 h1         1 9AF       0.040700
     79 H41         -8.8780     7.8170    17.4520 h1         1 9AF       0.040700
     80 H42         -7.5490     6.6570    17.5890 h1         1 9AF       0.040700
     81 H43         -5.5510     7.1950    17.2740 ha         1 9AF       0.133000
     82 H44         -3.2740     6.8030    16.4160 ha         1 9AF       0.130000
     83 H45         -2.8470     6.8360    13.9890 ha         1 9AF       0.135000
     84 H4           3.9170     0.2540    -2.0480 hn         1 9AF       0.452800
     85 N1           0.8080     3.0440     4.9320 ns         1 9AF      -0.493100
@<TRIPOS>BOND
     1    39    38 1
     2    38    37 1
     3    37    40 ar
     4    37    36 ar
     5    40    41 ar
     6    36    35 ar
     7    41    42 ar
     8    35    42 ar
     9    35    32 1
    10    33    32 1
    11    33    34 1
    12    32    31 1
    13    34    29 1
    14    31    30 1
    15    27    26 1
    16    27    28 1
    17    29    30 1
    18    29    28 1
    19    26    14 1
    20    14    19 1
    21    19    18 2
    22    19    85 1
    23    85    20 1
    24    20    21 ar
    25    20    22 ar
    26    21     5 ar
    27    22     3 ar
    28     5     4 ar
    29    25    24 1
    30    24     1 1
    31     3     4 ar
    32     3     2 1
    33    15     1 2
    34     6     2 1
    35     6     7 2
    36     2    11 1
    37     8     7 1
    38     7    23 1
    39    11     9 2
    40    23     9 1
    41    16    12 2
    42     9    10 1
    43    12    17 1
    44    17    13 1
    45     2    43 1
    46     4    44 1
    47     5    45 1
    48     8    46 1
    49     8    47 1
    50     8    48 1
    51    10    49 1
    52    10    50 1
    53    10    51 1
    54    13    52 1
    55    13    53 1
    56    13    54 1
    57    85    55 1
    58    14    56 1
    59    21    57 1
    60    22    58 1
    61    25    59 1
    62    25    60 1
    63    25    61 1
    64    26    62 1
    65    26    63 1
    66    27    64 1
    67    27    65 1
    68    28    66 1
    69    28    67 1
    70    30    68 1
    71    30    69 1
    72    31    70 1
    73    31    71 1
    74    32    72 1
    75    33    73 1
    76    33    74 1
    77    34    75 1
    78    34    76 1
    79    36    77 1
    80    39    78 1
    81    39    79 1
    82    39    80 1
    83    40    81 1
    84    41    82 1
    85    42    83 1
    86    23    84 1
    87     1     6 1
    88    11    12 1
@<TRIPOS>SUBSTRUCTURE
     1 9AF         1 TEMP              0 ****  ****    0 ROOT
