@<TRIPOS>MOLECULE
9AG
   31    32     1     0     0
SMALL
bcc


@<TRIPOS>ATOM
      1 C13          0.0000     0.0000     0.0000 ca         1 9AG      -0.089000
      2 C15         -0.0040    -0.0080     2.3960 ca         1 9AG      -0.089000
      3 C01          6.9880     6.7110    -0.1990 c3         1 9AG       0.178100
      4 N02          6.3000     5.4140    -0.1640 n7         1 9AG      -0.583200
      5 C04          5.3680     3.6440     1.2160 ca         1 9AG      -0.136300
      6 C05          6.1030     2.4720     1.2080 ca         1 9AG      -0.047000
      7 C06          5.4570     1.2510     1.2040 ca         1 9AG      -0.171000
      8 C07          3.9860     3.5960     1.2270 ca         1 9AG      -0.047000
      9 C08          3.3360     2.3780     1.2230 ca         1 9AG      -0.171000
     10 C09          4.0700     1.2010     1.2080 ca         1 9AG       0.146100
     11 O10          3.4330    -0.0000     1.2040 os         1 9AG      -0.223200
     12 C11          2.0740     0.0000     1.2010 ca         1 9AG       0.104100
     13 C12          1.3820     0.0000     0.0000 ca         1 9AG      -0.117500
     14 C14         -0.6930    -0.0010     1.1960 ca         1 9AG      -0.106000
     15 C16          1.3770    -0.0120     2.4010 ca         1 9AG      -0.117500
     16 H1          -0.5410     0.0020    -0.9390 ha         1 9AG       0.105000
     17 H2          -0.5490    -0.0130     3.3320 ha         1 9AG       0.105000
     18 H3           7.9430     6.6270     0.3050 h1         1 9AG      -0.002633
     19 H4           7.1480     7.0070    -1.2290 h1         1 9AG      -0.002633
     20 H5           6.3810     7.4560     0.3010 h1         1 9AG      -0.002633
     21 H6           5.4220     5.4890    -0.6380 hn         1 9AG       0.252800
     22 H8           7.0260     4.8760     1.7280 h1         1 9AG       0.007700
     23 H9           5.4640     5.7060     1.7360 h1         1 9AG       0.007700
     24 H10          7.1850     2.5120     1.2050 ha         1 9AG       0.105000
     25 H11          6.0330     0.3330     1.1950 ha         1 9AG       0.121000
     26 H12          3.4120     4.5150     1.2390 ha         1 9AG       0.105000
     27 H13          2.2530     2.3420     1.2290 ha         1 9AG       0.121000
     28 H14          1.9240     0.0010    -0.9380 ha         1 9AG       0.117000
     29 H15         -1.7760     0.0000     1.1940 ha         1 9AG       0.105000
     30 H16          1.9150    -0.0170     3.3410 ha         1 9AG       0.117000
     31 C03          6.0740     4.9740     1.2200 c3         1 9AG       0.207100
@<TRIPOS>BOND
     1     1    13 ar  
     2     1    14 ar  
     3     1    16 1   
     4     2    14 ar  
     5     2    15 ar  
     6     2    17 1   
     7     3     4 1   
     8     3    18 1   
     9     3    19 1   
    10     3    20 1   
    11     4    21 1   
    12     4    31 1   
    13     5     6 ar  
    14     5     8 ar  
    15     5    31 1   
    16     6     7 ar  
    17     6    24 1   
    18     7    10 ar  
    19     7    25 1   
    20     8     9 ar  
    21     8    26 1   
    22     9    10 ar  
    23     9    27 1   
    24    10    11 1   
    25    11    12 1   
    26    12    13 ar  
    27    12    15 ar  
    28    13    28 1   
    29    14    29 1   
    30    15    30 1   
    31    22    31 1   
    32    23    31 1   
@<TRIPOS>SUBSTRUCTURE
     1 9AG         1 TEMP              0 ****  ****    0 ROOT
