@<TRIPOS>MOLECULE
molecule
   31    32     1     0     0
SMALL
bcc


@<TRIPOS>ATOM
      1 C13          0.0000     0.0000     0.0000 ca         1 9AG      -0.120500
      2 C15         -0.0040    -0.0080     2.3960 ca         1 9AG      -0.120500
      3 C01          6.9880     6.7110    -0.1990 c3         1 9AG       0.146100
      4 N02          6.3000     5.4140    -0.1640 n7         1 9AG      -0.816200
      5 C04          5.3680     3.6440     1.2160 ca         1 9AG      -0.121300
      6 C05          6.1030     2.4720     1.2080 ca         1 9AG      -0.081000
      7 C06          5.4570     1.2510     1.2040 ca         1 9AG      -0.183000
      8 C07          3.9860     3.5960     1.2270 ca         1 9AG      -0.081000
      9 C08          3.3360     2.3780     1.2230 ca         1 9AG      -0.183000
     10 C09          4.0700     1.2010     1.2080 ca         1 9AG       0.139100
     11 O10          3.4330    -0.0000     1.2040 os         1 9AG      -0.251200
     12 C11          2.0740     0.0000     1.2010 ca         1 9AG       0.099100
     13 C12          1.3820     0.0000     0.0000 ca         1 9AG      -0.136500
     14 C14         -0.6930    -0.0010     1.1960 ca         1 9AG      -0.130000
     15 C16          1.3770    -0.0120     2.4010 ca         1 9AG      -0.136500
     16 H1          -0.5410     0.0020    -0.9390 ha         1 9AG       0.135000
     17 H2          -0.5490    -0.0130     3.3320 ha         1 9AG       0.135000
     18 H3           7.9430     6.6270     0.3050 h1         1 9AG       0.030367
     19 H4           7.1480     7.0070    -1.2290 h1         1 9AG       0.030367
     20 H5           6.3810     7.4560     0.3010 h1         1 9AG       0.030367
     21 H6           5.4220     5.4890    -0.6380 hn         1 9AG       0.354800
     22 H8           7.0260     4.8760     1.7280 h1         1 9AG       0.036200
     23 H9           5.4640     5.7060     1.7360 h1         1 9AG       0.036200
     24 H10          7.1850     2.5120     1.2050 ha         1 9AG       0.135000
     25 H11          6.0330     0.3330     1.1950 ha         1 9AG       0.144500
     26 H12          3.4120     4.5150     1.2390 ha         1 9AG       0.135000
     27 H13          2.2530     2.3420     1.2290 ha         1 9AG       0.144500
     28 H14          1.9240     0.0010    -0.9380 ha         1 9AG       0.145000
     29 H15         -1.7760     0.0000     1.1940 ha         1 9AG       0.133000
     30 H16          1.9150    -0.0170     3.3410 ha         1 9AG       0.145000
     31 C03          6.0740     4.9740     1.2200 c3         1 9AG       0.207100
@<TRIPOS>BOND
     1     3     4 1
     2     8     9 ar
     3     8     5 ar
     4    31     4 1
     5    31     5 1
     6     9    10 ar
     7     5     6 ar
     8    10    11 1
     9    10     7 ar
    10     6     7 ar
    11    11    12 1
    12    12    13 ar
    13    12    15 ar
    14    13     1 ar
    15    15     2 ar
    16     1    14 ar
    17     2    14 ar
    18     1    16 1
    19     2    17 1
    20     3    18 1
    21     3    19 1
    22     3    20 1
    23     4    21 1
    24    31    22 1
    25    31    23 1
    26     6    24 1
    27     7    25 1
    28     8    26 1
    29     9    27 1
    30    13    28 1
    31    14    29 1
    32    15    30 1
@<TRIPOS>SUBSTRUCTURE
     1 9AG         1 TEMP              0 ****  ****    0 ROOT
