@<TRIPOS>MOLECULE
molecule
   32    31     1     0     0
SMALL
bcc


@<TRIPOS>ATOM
      1 N1           0.0000     0.0000     0.0000 n3         1 9AH      -0.592600
      2 C2           1.4690     0.0000     0.0000 c3         1 9AH      -0.105200
      3 C3           1.9790     0.0000     1.4430 c3         1 9AH      -0.006400
      4 C8          -0.3910    -1.7230    -1.6960 c3         1 9AH      -0.035400
      5 C9          -0.8440    -1.9530    -3.1390 c3         1 9AH      -0.122100
      6 C10         -0.5260     1.2530     0.5570 c3         1 9AH      -0.111700
      7 C11         -2.0030     1.0700     0.9160 c3         1 9AH      -0.035400
      8 C12         -2.5190     2.3320     1.6090 c3         1 9AH      -0.122100
      9 N6           4.3920    -0.0110     3.8970 n1         1 9AH      -0.364800
     10 C5           3.9990     0.0010     2.8310 c1         1 9AH       0.229700
     11 C4           3.5090     0.0000     1.4430 c3         1 9AH      -0.057300
     12 C7          -0.5260    -0.2390    -1.3510 c3         1 9AH      -0.111700
     13 H2           2.1410     0.0680    -0.8470 h1         1 9AH       0.111700
     14 H3           1.8660     0.7550     0.6680 h1         1 9AH       0.111700
     15 H4           1.8640     0.9570     1.9370 hc         1 9AH       0.037700
     16 H5           1.4620    -0.6730     2.1160 hc         1 9AH       0.037700
     17 H6          -0.9990    -2.5210    -1.2880 hc         1 9AH       0.067700
     18 H7           0.5480    -2.1820    -1.9810 hc         1 9AH       0.067700
     19 H8          -0.4740    -1.0560    -3.6200 hc         1 9AH       0.041033
     20 H9          -0.6480    -2.9780    -3.4300 hc         1 9AH       0.041033
     21 H10         -1.8390    -1.5440    -3.0090 hc         1 9AH       0.041033
     22 H11          0.0360     2.1770     0.6130 h1         1 9AH       0.112200
     23 H12         -1.3830     1.3920    -0.0920 h1         1 9AH       0.112200
     24 H13         -1.5980     0.6620     1.8340 hc         1 9AH       0.067700
     25 H14         -2.2610     0.2210     0.2950 hc         1 9AH       0.067700
     26 H15         -2.4050     3.3780     1.3500 hc         1 9AH       0.041033
     27 H16         -1.9620     2.5960     2.4990 hc         1 9AH       0.041033
     28 H17         -3.5590     2.2100     1.8850 hc         1 9AH       0.041033
     29 H18          3.7610     0.8960     0.8890 hc         1 9AH       0.085200
     30 H19          3.5710    -0.9030     0.8490 hc         1 9AH       0.085200
     31 H20          0.1770    -0.7720    -1.9800 h1         1 9AH       0.112200
     32 H21         -0.7410     0.6880    -1.8690 h1         1 9AH       0.112200
@<TRIPOS>BOND
     1     5     4 1
     2     4    12 1
     3    12     1 1
     4     1     2 1
     5     1     6 1
     6     2     3 1
     7     6     7 1
     8     3    11 1
     9    11    10 1
    10     7     8 1
    11    10     9 3
    12     2    13 1
    13     2    14 1
    14     3    15 1
    15     3    16 1
    16     4    17 1
    17     4    18 1
    18     5    19 1
    19     5    20 1
    20     5    21 1
    21     6    22 1
    22     6    23 1
    23     7    24 1
    24     7    25 1
    25     8    26 1
    26     8    27 1
    27     8    28 1
    28    11    29 1
    29    11    30 1
    30    12    31 1
    31    12    32 1
@<TRIPOS>SUBSTRUCTURE
     1 9AH         1 TEMP              0 ****  ****    0 ROOT
