@<TRIPOS>MOLECULE
molecule
   13    12     1     0     0
SMALL
bcc


@<TRIPOS>ATOM
      1 C6           0.0000     0.0000     0.0000 c3         1 9AI       0.128200
      2 C5           1.5070     0.0000     0.0000 c2         1 9AI      -0.213200
      3 C4           2.1620     0.0000     1.1340 c2         1 9AI      -0.187000
      4 C1          -1.8130     1.3330    -0.9330 cs         1 9AI       0.393200
      5 N1          -0.4880     1.1320    -0.7920 ns         1 9AI      -0.485900
      6 S6          -2.8530     0.3370    -0.2370 s          1 9AI      -0.529400
      7 H1          -0.3610    -0.9250    -0.4320 h1         1 9AI       0.077700
      8 H2          -0.3610     0.0890     1.0180 h1         1 9AI       0.077700
      9 H3           2.0490    -0.0000    -0.9380 ha         1 9AI       0.128000
     10 H5           3.2450    -0.0000     1.1340 ha         1 9AI       0.119500
     11 H6           1.6200     0.0000     2.0720 ha         1 9AI       0.119500
     12 H8          -2.1750     2.1800    -1.5050 h5         1 9AI       0.057200
     13 H4           0.1620     1.7520    -1.2330 hn         1 9AI       0.314500
@<TRIPOS>BOND
     1     4     5 1
     2     4     6 2
     3     5     1 1
     4     2     1 1
     5     2     3 2
     6     1     7 1
     7     1     8 1
     8     2     9 1
     9     3    10 1
    10     3    11 1
    11     4    12 1
    12     5    13 1
@<TRIPOS>SUBSTRUCTURE
     1 9AI         1 TEMP              0 ****  ****    0 ROOT
