@<TRIPOS>MOLECULE
molecule
   93   100     1     0     0
SMALL
bcc


@<TRIPOS>ATOM
      1 C4           0.0000     0.0000     0.0000 cc         1 9AJ      -0.082000
      2 C14         -0.6150    -0.6690    -4.0020 c3         1 9AJ       0.109000
      3 C5           1.4050     0.0000     0.0000 cc         1 9AJ      -0.198300
      4 C6           2.5870     0.0000     0.9420 c3         1 9AJ       0.007900
      5 C11          1.8270     0.0050    -1.2890 cd         1 9AJ      -0.105600
      6 C7           3.7880     0.4370     0.0780 c3         1 9AJ      -0.065000
      7 C8           5.0630    -0.2980     0.4980 c3         1 9AJ      -0.078600
      8 C9           3.9880     1.9530     0.1460 c3         1 9AJ      -0.078600
      9 C10          3.3430     0.0030    -1.3360 c3         1 9AJ       0.010900
     10 C13          0.6620     0.0450    -3.5580 c3         1 9AJ       0.026300
     11 C3          -0.3960    -0.0110    -1.3030 cd         1 9AJ      -0.197900
     12 C46         -7.7540    -4.1130    -5.4310 c          1 9AJ       0.667700
     13 C26         -7.6650    -3.5490    -4.1380 cc         1 9AJ       0.016800
     14 N27         -8.4600    -4.0440    -3.0960 nu         1 9AJ      -0.766700
     15 C28         -9.8490    -3.9870    -3.1920 ca         1 9AJ       0.705200
     16 N33        -10.5930    -4.5560    -2.2560 nb         1 9AJ      -0.752000
     17 C32        -11.9110    -4.5270    -2.3070 ca         1 9AJ       0.485200
     18 C31        -12.5670    -3.8930    -3.3520 ca         1 9AJ      -0.095700
     19 N34        -13.9660    -3.8660    -3.3970 nh         1 9AJ      -0.608000
     20 C39        -14.4670    -4.5420    -4.6020 c3         1 9AJ       0.174500
     21 C41        -13.9390    -5.9780    -4.6380 c3         1 9AJ      -0.091100
     22 C38        -15.9970    -4.5620    -4.5750 c3         1 9AJ       0.167800
     23 N37        -16.5010    -3.1820    -4.5010 n3         1 9AJ      -0.721600
     24 C42        -17.9680    -3.1550    -4.5490 cy         1 9AJ       0.100500
     25 C45        -18.5780    -1.7470    -4.6090 cy         1 9AJ       0.085400
     26 O44        -19.5930    -2.1910    -3.6990 oq         1 9AJ      -0.400600
     27 C43        -18.6510    -3.1390    -3.1750 cy         1 9AJ       0.085400
     28 C36        -16.0000    -2.5050    -3.2960 c3         1 9AJ       0.154800
     29 C35        -14.4700    -2.4870    -3.3230 c3         1 9AJ       0.169800
     30 C30        -11.8170    -3.2820    -4.3550 ca         1 9AJ      -0.092000
     31 C29        -10.4380    -3.3280    -4.2660 ca         1 9AJ      -0.281300
     32 C25         -6.7980    -2.5190    -3.9150 cd         1 9AJ      -0.059000
     33 N48         -6.9850    -3.6390    -6.4290 n          1 9AJ      -0.315000
     34 C49         -7.0830    -4.2370    -7.7630 c3         1 9AJ       0.083300
     35 C50         -6.1190    -2.6150    -6.2180 cc         1 9AJ       0.022600
     36 C24         -6.0090    -2.0410    -4.9850 cd         1 9AJ      -0.147200
     37 C20         -5.0590    -0.9220    -4.7680 ca         1 9AJ       0.016200
     38 C19         -5.3500     0.3650    -5.2310 ca         1 9AJ      -0.245300
     39 C18         -4.4430     1.3800    -5.0090 ca         1 9AJ       0.438200
     40 N17         -3.3120     1.1520    -4.3690 nb         1 9AJ      -0.692000
     41 C21         -3.8560    -1.1260    -4.0900 ca         1 9AJ      -0.175600
     42 C22         -3.4940    -2.4910    -3.5650 c3         1 9AJ       0.189700
     43 O23         -2.7460    -3.1990    -4.5540 oh         1 9AJ      -0.615800
     44 C16         -2.9950    -0.0510    -3.9130 ca         1 9AJ       0.565200
     45 N15         -1.7880    -0.2390    -3.2440 n          1 9AJ      -0.494300
     46 C2          -1.7340    -0.0200    -1.9090 c          1 9AJ       0.763100
     47 O1          -2.7390     0.1590    -1.2460 o          1 9AJ      -0.610500
     48 N12          0.7430     0.0160    -2.0950 na         1 9AJ      -0.029100
     49 H1          -0.6370     0.1810     0.8580 ha         1 9AJ       0.165000
     50 H2          -0.4830    -1.7360    -3.8670 h1         1 9AJ       0.065200
     51 H3          -0.7830    -0.4620    -5.0520 h1         1 9AJ       0.065200
     52 H4           2.4260     0.7080     1.7460 hc         1 9AJ       0.051200
     53 H5           2.7520    -0.9950     1.3370 hc         1 9AJ       0.051200
     54 H6           5.8740    -0.0230    -0.1650 hc         1 9AJ       0.038200
     55 H7           5.3190    -0.0240     1.5150 hc         1 9AJ       0.038200
     56 H8           4.8980    -1.3670     0.4440 hc         1 9AJ       0.038200
     57 H9           4.7730     2.2450    -0.5420 hc         1 9AJ       0.038200
     58 H10          4.2680     2.2360     1.1540 hc         1 9AJ       0.038200
     59 H11          3.0660     2.4520    -0.1260 hc         1 9AJ       0.038200
     60 H12          3.7100    -0.9920    -1.5550 hc         1 9AJ       0.051700
     61 H13          3.6970     0.7120    -2.0740 hc         1 9AJ       0.051700
     62 H14          0.6380     1.0730    -3.8990 h1         1 9AJ       0.068700
     63 H15          1.5230    -0.4620    -3.9780 h1         1 9AJ       0.068700
     64 H16         -8.0310    -4.4530    -2.2900 hn         1 9AJ       0.461800
     65 H17        -12.4870    -5.0040    -1.5240 h4         1 9AJ       0.034100
     66 H18        -14.1300    -4.0060    -5.4810 h1         1 9AJ       0.038700
     67 H19        -12.9180    -5.9780    -5.0000 hc         1 9AJ       0.044700
     68 H20        -14.5570    -6.5730    -5.2990 hc         1 9AJ       0.044700
     69 H21        -13.9690    -6.3980    -3.6400 hc         1 9AJ       0.044700
     70 H22        -16.3350    -5.1150    -3.7070 h1         1 9AJ       0.043700
     71 H23        -16.3680    -5.0320    -5.4770 h1         1 9AJ       0.043700
     72 H25        -18.4230    -3.8490    -5.2450 h1         1 9AJ       0.095700
     73 H26        -17.9310    -0.9900    -4.1810 h1         1 9AJ       0.061450
     74 H27        -18.9690    -1.5000    -5.5880 h1         1 9AJ       0.061450
     75 H28        -18.0220    -2.7220    -2.3980 h1         1 9AJ       0.061450
     76 H29        -19.1060    -4.0880    -2.9200 h1         1 9AJ       0.061450
     77 H30        -16.3720    -1.4880    -3.2730 h1         1 9AJ       0.046200
     78 H31        -16.3380    -3.0390    -2.4160 h1         1 9AJ       0.046200
     79 H32        -14.0990    -2.0160    -2.4200 h1         1 9AJ       0.045200
     80 H33        -14.1310    -1.9330    -4.1900 h1         1 9AJ       0.045200
     81 H34        -12.3020    -2.7770    -5.1810 ha         1 9AJ       0.139000
     82 H35         -9.8230    -2.8630    -5.0280 ha         1 9AJ       0.137000
     83 H36         -6.7170    -2.0720    -2.9320 ha         1 9AJ       0.157000
     84 H37         -8.0500    -4.0050    -8.1920 h1         1 9AJ       0.059367
     85 H38         -6.9700    -5.3110    -7.6870 h1         1 9AJ       0.059367
     86 H39         -6.3010    -3.8360    -8.3970 h1         1 9AJ       0.059367
     87 H40         -5.5110    -2.2490    -7.0360 h4         1 9AJ       0.165000
     88 H41         -6.2750     0.5630    -5.7580 ha         1 9AJ       0.146000
     89 H42         -4.6630     2.3790    -5.3650 h4         1 9AJ       0.029100
     90 H43         -2.8970    -2.3860    -2.6670 h1         1 9AJ       0.040700
     91 H44         -4.3990    -3.0410    -3.3340 h1         1 9AJ       0.040700
     92 H45         -2.5780    -4.0770    -4.2530 ho         1 9AJ       0.407000
     93 O47         -8.5250    -5.0340    -5.6430 o          1 9AJ      -0.631500
@<TRIPOS>BOND
     1    25    26 1
     2    25    24 1
     3    26    27 1
     4    27    24 1
     5    24    23 1
     6    22    23 1
     7    22    20 1
     8    23    28 1
     9    21    20 1
    10    20    19 1
    11    28    29 1
    12    19    29 1
    13    19    18 1
    14    30    18 ar
    15    30    31 ar
    16    18    17 ar
    17    31    15 ar
    18    17    16 ar
    19    15    16 ar
    20    15    14 1
    21    14    13 1
    22    13    32 2
    23    13    12 1
    24    93    12 2
    25    32    36 1
    26    12    33 1
    27    33    35 1
    28    33    34 1
    29    36    35 2
    30    36    37 1
    31    38    37 ar
    32    38    39 ar
    33    37    41 ar
    34    39    40 ar
    35    41    42 1
    36    41    44 ar
    37    40    44 ar
    38    42    43 1
    39    44    45 1
    40     2    45 1
    41     2    10 1
    42    45    46 1
    43    10    48 1
    44    46    47 2
    45    46    11 1
    46    48    11 1
    47    48     5 1
    48    11     1 2
    49     5     9 1
    50     5     3 2
    51     9     6 1
    52     1     3 1
    53     3     4 1
    54     6     7 1
    55     6     4 1
    56     6     8 1
    57     1    49 1
    58     2    50 1
    59     2    51 1
    60     4    52 1
    61     4    53 1
    62     7    54 1
    63     7    55 1
    64     7    56 1
    65     8    57 1
    66     8    58 1
    67     8    59 1
    68     9    60 1
    69     9    61 1
    70    10    62 1
    71    10    63 1
    72    14    64 1
    73    17    65 1
    74    20    66 1
    75    21    67 1
    76    21    68 1
    77    21    69 1
    78    22    70 1
    79    22    71 1
    80    24    72 1
    81    25    73 1
    82    25    74 1
    83    27    75 1
    84    27    76 1
    85    28    77 1
    86    28    78 1
    87    29    79 1
    88    29    80 1
    89    30    81 1
    90    31    82 1
    91    32    83 1
    92    34    84 1
    93    34    85 1
    94    34    86 1
    95    35    87 1
    96    38    88 1
    97    39    89 1
    98    42    90 1
    99    42    91 1
   100    43    92 1
@<TRIPOS>SUBSTRUCTURE
     1 9AJ         1 TEMP              0 ****  ****    0 ROOT
