@<TRIPOS>MOLECULE
molecule
   26    25     1     0     0
SMALL
bcc


@<TRIPOS>ATOM
      1 C2           0.0000     0.0000     0.0000 c3         1 9AK       0.137800
      2 C3           1.5300     0.0000     0.0000 c3         1 9AK       0.105200
      3 N1          -0.4890     0.0000     1.3860 n7         1 9AK      -0.807200
      4 C5           2.0400    -0.0010    -1.4420 c3         1 9AK      -0.108100
      5 C6           2.0410     1.2490     0.7220 c3         1 9AK      -0.108100
      6 C7          -1.9580     0.0010     1.4240 c3         1 9AK       0.157800
      7 N4           2.0200    -1.1990     0.6930 nz         1 9AK      -0.811600
      8 O9          -2.0350     1.2210     3.5080 oh         1 9AK      -0.598800
      9 C8          -2.4290     0.0000     2.8800 c3         1 9AK       0.144400
     10 H1          -0.3610    -0.8850    -0.5110 h1         1 9AK       0.072200
     11 H2          -0.3610     0.8850    -0.5110 h1         1 9AK       0.072200
     12 H3          -0.1440    -0.8100     1.8620 hn         1 9AK       0.322800
     13 H5           1.6880    -0.8910    -1.9500 hc         1 9AK       0.077367
     14 H6           3.1240     0.0100    -1.4420 hc         1 9AK       0.077367
     15 H7           1.6710     0.8780    -1.9570 hc         1 9AK       0.077367
     16 H8           3.1090     1.3420     0.5690 hc         1 9AK       0.077367
     17 H9           1.5410     2.1240     0.3260 hc         1 9AK       0.077367
     18 H10          1.8340     1.1630     1.7820 hc         1 9AK       0.077367
     19 H11         -2.3330    -0.8840     0.9230 h1         1 9AK       0.058200
     20 H12         -2.3320     0.8860     0.9230 h1         1 9AK       0.058200
     21 H13          1.9560    -1.0630     1.6820 hn         1 9AK       0.453133
     22 H14          2.9740    -1.3640     0.4400 hn         1 9AK       0.453133
     23 H16         -2.4630     1.2960     4.3450 ho         1 9AK       0.416000
     24 H17         -3.5080    -0.0900     2.9100 h1         1 9AK       0.032700
     25 H18         -1.9810    -0.8360     3.4040 h1         1 9AK       0.032700
     26 H43          1.4630    -1.9880     0.4290 hn         1 9AK       0.453133
@<TRIPOS>BOND
     1     8     9 1
     2     4     2 1
     3     9     6 1
     4     3     6 1
     5     3     1 1
     6     2     7 1
     7     2     1 1
     8     2     5 1
     9     1    10 1
    10     1    11 1
    11     3    12 1
    12     4    13 1
    13     4    14 1
    14     4    15 1
    15     5    16 1
    16     5    17 1
    17     5    18 1
    18     6    19 1
    19     6    20 1
    20     7    21 1
    21     7    22 1
    22     8    23 1
    23     9    24 1
    24     9    25 1
    25    26     7 1
@<TRIPOS>SUBSTRUCTURE
     1 9AK         1 TEMP              0 ****  ****    0 ROOT
