@<TRIPOS>MOLECULE
9AK
   26    25     1     0     0
SMALL
bcc


@<TRIPOS>ATOM
      1 C2           0.0000     0.0000     0.0000 c3         1 9AK       0.130800
      2 C3           1.5300     0.0000     0.0000 c3         1 9AK      -0.095800
      3 N1          -0.4890     0.0000     1.3860 n7         1 9AK      -0.568200
      4 C5           2.0400    -0.0010    -1.4420 c3         1 9AK       0.001900
      5 C6           2.0410     1.2490     0.7220 c3         1 9AK       0.001900
      6 C7          -1.9580     0.0010     1.4240 c3         1 9AK       0.141800
      7 N4           2.0200    -1.1990     0.6930 nz         1 9AK       0.054400
      8 O9          -2.0350     1.2210     3.5080 oh         1 9AK      -0.585800
      9 C8          -2.4290     0.0000     2.8800 c3         1 9AK       0.230400
     10 H1          -0.3610    -0.8850    -0.5110 h1         1 9AK       0.044200
     11 H2          -0.3610     0.8850    -0.5110 h1         1 9AK       0.044200
     12 H3          -0.1440    -0.8100     1.8620 hn         1 9AK       0.219800
     13 H5           1.6880    -0.8910    -1.9500 hc         1 9AK       0.040700
     14 H6           3.1240     0.0100    -1.4420 hc         1 9AK       0.040700
     15 H7           1.6710     0.8780    -1.9570 hc         1 9AK       0.040700
     16 H8           3.1090     1.3420     0.5690 hc         1 9AK       0.040700
     17 H9           1.5410     2.1240     0.3260 hc         1 9AK       0.040700
     18 H10          1.8340     1.1630     1.7820 hc         1 9AK       0.040700
     19 H11         -2.3330    -0.8840     0.9230 h1         1 9AK       0.027200
     20 H12         -2.3320     0.8860     0.9230 h1         1 9AK       0.027200
     21 H13          1.9560    -1.0630     1.6820 hn         1 9AK       0.229133
     22 H14          2.9740    -1.3640     0.4400 hn         1 9AK       0.229133
     23 H16         -2.4630     1.2960     4.3450 ho         1 9AK       0.405000
     24 H17         -3.5080    -0.0900     2.9100 h1         1 9AK      -0.005800
     25 H18         -1.9810    -0.8360     3.4040 h1         1 9AK      -0.005800
     26 H43          1.4630    -1.9880     0.4290 hn         1 9AK       0.229133
@<TRIPOS>BOND
     1     1     2 1   
     2     1     3 1   
     3     1    10 1   
     4     1    11 1   
     5     2     4 1   
     6     2     5 1   
     7     2     7 1   
     8     3     6 1   
     9     3    12 1   
    10     4    13 1   
    11     4    14 1   
    12     4    15 1   
    13     5    16 1   
    14     5    17 1   
    15     5    18 1   
    16     6     9 1   
    17     6    19 1   
    18     6    20 1   
    19     7    21 1   
    20     7    22 1   
    21     7    26 1   
    22     8     9 1   
    23     8    23 1   
    24     9    24 1   
    25     9    25 1   
@<TRIPOS>SUBSTRUCTURE
     1 9AK         1 TEMP              0 ****  ****    0 ROOT
