@<TRIPOS>MOLECULE
molecule
   38    38     1     0     0
SMALL
bcc


@<TRIPOS>ATOM
      1 C1           0.0000     0.0000     0.0000 c          1 9AM       0.883800
      2 C2           1.4740     0.0000     0.0000 ce         1 9AM       0.054900
      3 C3           2.0670     0.0000     1.1770 c2         1 9AM      -0.316200
      4 C4           3.5680    -0.0190     1.3210 c3         1 9AM       0.288300
      5 C5           4.1840     0.2670    -0.0550 c3         1 9AM      -0.077300
      6 C6           3.3900    -0.5390    -1.0910 c3         1 9AM       0.127100
      7 C7           4.0900    -0.4610    -2.4480 c3         1 9AM       0.136100
      8 C8           3.2930    -1.2620    -3.4800 c3         1 9AM       0.076100
      9 C9           3.9920    -1.1850    -4.8380 c3         1 9AM      -0.044200
     10 C11          7.9990     0.2970     0.2550 c3         1 9AM      -0.176100
     11 N5           5.5870    -0.1500    -0.0690 ns         1 9AM      -0.597900
     12 O1A         -0.6750     0.0000    -1.1670 o          1 9AM      -0.808300
     13 O1B         -0.6080    -0.0000     1.0530 o          1 9AM      -0.808300
     14 O4           3.9760     0.9850     2.2510 oh         1 9AM      -0.549800
     15 O6           2.0790     0.0010    -1.2000 os         1 9AM      -0.251900
     16 O7           4.1700     0.9030    -2.8660 oh         1 9AM      -0.513800
     17 O8           3.2130    -2.6270    -3.0640 oh         1 9AM      -0.591800
     18 N9           3.2280    -1.9550    -5.8280 nz         1 9AM      -0.786600
     19 O10          6.2630     1.8630     0.5750 o          1 9AM      -0.533100
     20 H3           1.4560     0.0130     2.0710 ha         1 9AM       0.191000
     21 H4           3.8880    -0.9950     1.6670 h1         1 9AM      -0.033300
     22 H5           4.2600    -0.6290     0.5490 h1         1 9AM       0.129700
     23 H6           3.5160    -1.4910    -0.5900 h1         1 9AM       0.028700
     24 H7           4.7650    -1.2870    -2.2600 h1         1 9AM       0.083700
     25 H8           2.3880    -0.6770    -3.3750 h1         1 9AM       0.141700
     26 H91          3.0450    -0.6740    -4.7130 hx         1 9AM       0.142200
     27 H92          4.6680    -0.3880    -5.1220 hx         1 9AM       0.142200
     28 H111         8.6150     1.0940     0.6510 hc         1 9AM       0.054367
     29 H112         8.1150    -0.5890     0.8680 hc         1 9AM       0.054367
     30 H113         8.3040     0.0760    -0.7610 hc         1 9AM       0.054367
     31 HN5          5.8280    -1.0880    -0.3200 hn         1 9AM       0.280500
     32 HO4          3.9240     0.6420     3.1280 ho         1 9AM       0.396000
     33 HO7          5.0490     1.0950    -3.1470 ho         1 9AM       0.404000
     34 HO8          2.3090    -2.8940    -3.0340 ho         1 9AM       0.431000
     35 HN91         2.2500    -1.7950    -5.6920 hn         1 9AM       0.449800
     36 HN92         3.4890    -1.6660    -6.7500 hn         1 9AM       0.449800
     37 C10          6.5540     0.7250     0.2690 c          1 9AM       0.639100
     38 H93          3.4250    -2.9300    -5.7160 hn         1 9AM       0.449800
@<TRIPOS>BOND
     1     1     2 1
     2     1    12 1
     3     1    13 1
     4     2     3 2
     5     2    15 1
     6     3     4 1
     7     3    20 1
     8     4     5 1
     9     4    14 1
    10     4    21 1
    11     5     6 1
    12     5    11 1
    13     5    22 1
    14     6     7 1
    15     6    15 1
    16     6    23 1
    17     7     8 1
    18     7    16 1
    19     7    24 1
    20     8     9 1
    21     8    17 1
    22     8    25 1
    23     9    18 1
    24     9    26 1
    25     9    27 1
    26    37    10 1
    27    37    11 1
    28    37    19 2
    29    10    28 1
    30    10    29 1
    31    10    30 1
    32    11    31 1
    33    14    32 1
    34    16    33 1
    35    17    34 1
    36    18    35 1
    37    18    36 1
    38    38    18 1
@<TRIPOS>SUBSTRUCTURE
     1 9AM         1 TEMP              0 ****  ****    0 ROOT
