@<TRIPOS>MOLECULE
9AN
   28    30     1     0     0
SMALL
bcc


@<TRIPOS>ATOM
      1 CAG          0.0000     0.0000     0.0000 ca         1 9AN      -0.085000
      2 CAB          1.3850     0.0000     0.0000 ca         1 9AN       0.121100
      3 OAA          2.0640     0.0010    -1.1780 oh         1 9AN      -0.497100
      4 CAC          2.0790     0.0000     1.2020 ca         1 9AN      -0.119000
      5 CAD          1.3940    -0.0010     2.4020 ca         1 9AN      -0.079000
      6 CAE          0.0140    -0.0020     2.4140 ca         1 9AN      -0.115000
      7 CAF         -0.6930    -0.0010     1.2100 ca         1 9AN      -0.136900
      8 CAH         -2.1720     0.0050     1.2190 cc         1 9AN       0.355500
      9 NAI         -2.8020     0.0110     0.0720 nd         1 9AN      -0.534100
     10 CAJ         -4.1480     0.0150     0.0040 ca         1 9AN       0.154400
     11 CAO         -4.8170     0.0210    -1.2230 ca         1 9AN      -0.098000
     12 CAN         -6.1940     0.0250    -1.2490 ca         1 9AN      -0.063000
     13 CAM         -6.9280     0.0250    -0.0700 ca         1 9AN      -0.128000
     14 CAL         -6.2910     0.0190     1.1520 ca         1 9AN      -0.015000
     15 CAK         -4.8980     0.0140     1.2020 ca         1 9AN      -0.216600
     16 CAP         -4.1690     0.0070     2.4790 c          1 9AN       0.621100
     17 OAQ         -4.7580     0.0060     3.5440 o          1 9AN      -0.665500
     18 NAR         -2.8170    -0.0020     2.4250 ns         1 9AN      -0.017400
     19 H1          -0.5430     0.0010    -0.9370 ha         1 9AN       0.141000
     20 H2           2.1830    -0.8870    -1.4720 ho         1 9AN       0.405000
     21 H3           3.1620     0.0000     1.1990 ha         1 9AN       0.116000
     22 H4           1.9420    -0.0010     3.3370 ha         1 9AN       0.108000
     23 H5          -0.5200    -0.0030     3.3570 ha         1 9AN       0.105000
     24 H6          -4.2550     0.0220    -2.1490 ha         1 9AN       0.119000
     25 H7          -6.7110     0.0290    -2.2010 ha         1 9AN       0.103000
     26 H8          -8.0100     0.0280    -0.1110 ha         1 9AN       0.108000
     27 H9          -6.8700     0.0190     2.0680 ha         1 9AN       0.124000
     28 H10         -2.2850    -0.0140     3.2730 hn         1 9AN       0.190500
@<TRIPOS>BOND
     1     1     2 ar  
     2     1     7 ar  
     3     1    19 1   
     4     2     3 1   
     5     2     4 ar  
     6     3    20 1   
     7     4     5 ar  
     8     4    21 1   
     9     5     6 ar  
    10     5    22 1   
    11     6     7 ar  
    12     6    23 1   
    13     7     8 1   
    14     8     9 2   
    15     8    18 1   
    16     9    10 1   
    17    10    11 ar  
    18    10    15 ar  
    19    11    12 ar  
    20    11    24 1   
    21    12    13 ar  
    22    12    25 1   
    23    13    14 ar  
    24    13    26 1   
    25    14    15 ar  
    26    14    27 1   
    27    15    16 1   
    28    16    17 2   
    29    16    18 1   
    30    18    28 1   
@<TRIPOS>SUBSTRUCTURE
     1 9AN         1 TEMP              0 ****  ****    0 ROOT
