@<TRIPOS>MOLECULE
molecule
   28    30     1     0     0
SMALL
bcc


@<TRIPOS>ATOM
      1 CAG          0.0000     0.0000     0.0000 ca         1 9AN      -0.096000
      2 CAB          1.3850     0.0000     0.0000 ca         1 9AN       0.099100
      3 OAA          2.0640     0.0010    -1.1780 oh         1 9AN      -0.516100
      4 CAC          2.0790     0.0000     1.2020 ca         1 9AN      -0.130000
      5 CAD          1.3940    -0.0010     2.4020 ca         1 9AN      -0.117000
      6 CAE          0.0140    -0.0020     2.4140 ca         1 9AN      -0.123000
      7 CAF         -0.6930    -0.0010     1.2100 ca         1 9AN      -0.134900
      8 CAH         -2.1720     0.0050     1.2190 cc         1 9AN       0.554500
      9 NAI         -2.8020     0.0110     0.0720 nd         1 9AN      -0.646100
     10 CAJ         -4.1480     0.0150     0.0040 ca         1 9AN       0.199400
     11 CAO         -4.8170     0.0210    -1.2230 ca         1 9AN      -0.122000
     12 CAN         -6.1940     0.0250    -1.2490 ca         1 9AN      -0.092000
     13 CAM         -6.9280     0.0250    -0.0700 ca         1 9AN      -0.154000
     14 CAL         -6.2910     0.0190     1.1520 ca         1 9AN      -0.051000
     15 CAK         -4.8980     0.0140     1.2020 ca         1 9AN      -0.207600
     16 CAP         -4.1690     0.0070     2.4790 c          1 9AN       0.710100
     17 OAQ         -4.7580     0.0060     3.5440 o          1 9AN      -0.623500
     18 NAR         -2.8170    -0.0020     2.4250 ns         1 9AN      -0.471400
     19 H1          -0.5430     0.0010    -0.9370 ha         1 9AN       0.172000
     20 H2           2.1830    -0.8870    -1.4720 ho         1 9AN       0.423000
     21 H3           3.1620     0.0000     1.1990 ha         1 9AN       0.146000
     22 H4           1.9420    -0.0010     3.3370 ha         1 9AN       0.140000
     23 H5          -0.5200    -0.0030     3.3570 ha         1 9AN       0.128000
     24 H6          -4.2550     0.0220    -2.1490 ha         1 9AN       0.149000
     25 H7          -6.7110     0.0290    -2.2010 ha         1 9AN       0.135000
     26 H8          -8.0100     0.0280    -0.1110 ha         1 9AN       0.136000
     27 H9          -6.8700     0.0190     2.0680 ha         1 9AN       0.154000
     28 H10         -2.2850    -0.0140     3.2730 hn         1 9AN       0.339500
@<TRIPOS>BOND
     1     3     2 1
     2     4     2 ar
     3     4     5 ar
     4     2     1 ar
     5     5     6 ar
     6     1     7 ar
     7     6     7 ar
     8     7     8 1
     9     8     9 2
    10     8    18 1
    11     9    10 1
    12    18    16 1
    13    10    11 ar
    14    10    15 ar
    15    11    12 ar
    16    16    15 1
    17    16    17 2
    18    15    14 ar
    19    12    13 ar
    20    14    13 ar
    21     1    19 1
    22     3    20 1
    23     4    21 1
    24     5    22 1
    25     6    23 1
    26    11    24 1
    27    12    25 1
    28    13    26 1
    29    14    27 1
    30    18    28 1
@<TRIPOS>SUBSTRUCTURE
     1 9AN         1 TEMP              0 ****  ****    0 ROOT
