@<TRIPOS>MOLECULE
molecule
   87    89     1     0     0
SMALL
bcc


@<TRIPOS>ATOM
      1 C1           0.0000     0.0000     0.0000 c3         1 9AO      -0.155400
      2 N2           7.6360     0.0020     3.7760 ne         1 9AO      -0.650100
      3 C2           1.5070     0.0000     0.0000 c          1 9AO       0.661100
      4 O2          13.6310    -4.9590     5.0690 o          1 9AO      -0.569100
      5 N3           7.6190    -2.1870     2.9840 nz         1 9AO      -0.802600
      6 N1           5.6220     0.0010     2.6090 ns         1 9AO      -0.610900
      7 C3           3.6470     0.0010     1.1670 c3         1 9AO       0.099000
      8 C25         14.9170    -4.3400     2.6430 c          1 9AO       0.636100
      9 N6          15.1490    -4.4830     1.3230 ns         1 9AO      -0.588900
     10 C26         15.8890    -5.6480     0.8320 c3         1 9AO       0.163300
     11 C27         16.0100    -5.5700    -0.6690 ca         1 9AO      -0.136300
     12 C32         17.0930    -4.9280    -1.2400 ca         1 9AO      -0.100500
     13 C31         17.2060    -4.8550    -2.6150 ca         1 9AO      -0.155500
     14 C30         16.2320    -5.4260    -3.4220 ca         1 9AO       0.121100
     15 O4          16.3420    -5.3550    -4.7750 oh         1 9AO      -0.521100
     16 C29         15.1470    -6.0680    -2.8460 ca         1 9AO      -0.155500
     17 C28         15.0410    -6.1440    -1.4690 ca         1 9AO      -0.100500
     18 C10         14.1550    -3.1420     3.1490 c3         1 9AO       0.009700
     19 N5          14.4350    -2.9520     4.5740 ns         1 9AO      -0.583900
     20 C11         14.1330    -3.9250     5.4560 c          1 9AO       0.709100
     21 C12         14.4210    -3.7290     6.9230 c3         1 9AO      -0.039100
     22 C19         13.6600    -2.5310     7.4280 ca         1 9AO      -0.075300
     23 C24         12.2970    -2.4380     7.2140 ca         1 9AO      -0.114000
     24 C23         11.5980    -1.3390     7.6780 ca         1 9AO      -0.127500
     25 C22         12.2610    -0.3330     8.3560 ca         1 9AO      -0.118500
     26 C21         13.6250    -0.4280     8.5720 ca         1 9AO      -0.127500
     27 C20         14.3220    -1.5290     8.1110 ca         1 9AO      -0.114000
     28 C13         13.9930    -4.9560     7.6860 ca         1 9AO      -0.075300
     29 C18         14.8890    -5.5970     8.5220 ca         1 9AO      -0.114000
     30 C17         14.4960    -6.7220     9.2230 ca         1 9AO      -0.127500
     31 C16         13.2090    -7.2060     9.0880 ca         1 9AO      -0.118500
     32 C15         12.3130    -6.5640     8.2530 ca         1 9AO      -0.127500
     33 C14         12.7030    -5.4360     7.5570 ca         1 9AO      -0.114000
     34 C9          12.6560    -3.3700     2.9500 c3         1 9AO      -0.098400
     35 C8          11.8900    -2.1060     3.3470 c3         1 9AO      -0.092400
     36 C7          10.3900    -2.3330     3.1470 c3         1 9AO       0.192800
     37 N4           9.6580    -1.1230     3.5270 nu         1 9AO      -0.829200
     38 C6           8.2970    -1.0910     3.4330 c2         1 9AO       0.728100
     39 C5           6.2960     0.0010     3.7770 c          1 9AO       0.766500
     40 O1           5.6870     0.0010     4.8310 o          1 9AO      -0.534100
     41 C4           4.1570     0.0010     2.6100 c3         1 9AO       0.089000
     42 N            2.1810     0.0000     1.1680 ns         1 9AO      -0.596900
     43 O            2.1140     0.0000    -1.0510 o          1 9AO      -0.598100
     44 C           -0.5100    -0.0000    -1.4420 c3         1 9AO      -0.077100
     45 H1          -0.3610     0.8850     0.5100 hc         1 9AO       0.063700
     46 H2          -0.3610    -0.8840     0.5110 hc         1 9AO       0.063700
     47 H4           7.4410    -2.0910     2.0030 hn         1 9AO       0.477467
     48 H5           6.1220    -0.0240     1.7430 hn         1 9AO       0.310500
     49 H6           4.0080    -0.8840     0.6570 h1         1 9AO       0.054200
     50 H7           4.0070     0.8850     0.6560 h1         1 9AO       0.054200
     51 H8          14.8350    -3.7820     0.6810 hn         1 9AO       0.310500
     52 H9          16.8770    -5.6600     1.2740 h1         1 9AO       0.064700
     53 H10         15.3600    -6.5530     1.1050 h1         1 9AO       0.064700
     54 H11         17.8530    -4.4830    -0.6100 ha         1 9AO       0.137000
     55 H12         18.0550    -4.3530    -3.0630 ha         1 9AO       0.147000
     56 H13         16.8540    -6.0820    -5.0870 ho         1 9AO       0.428000
     57 H14         14.3860    -6.5160    -3.4730 ha         1 9AO       0.147000
     58 H15         14.1930    -6.6450    -1.0180 ha         1 9AO       0.137000
     59 H16         14.4620    -2.2600     2.6000 h1         1 9AO       0.062700
     60 H17         14.8240    -2.0330     4.5050 hn         1 9AO       0.335500
     61 H18         15.4830    -3.5680     7.0640 hc         1 9AO       0.088700
     62 H19         11.7770    -3.2250     6.6820 ha         1 9AO       0.128750
     63 H20         10.5310    -1.2650     7.5090 ha         1 9AO       0.130750
     64 H21         11.7140     0.5290     8.7180 ha         1 9AO       0.135500
     65 H22         14.1450     0.3580     9.1050 ha         1 9AO       0.130750
     66 H23         15.3890    -1.6030     8.2800 ha         1 9AO       0.128750
     67 H24         15.8980    -5.2180     8.6280 ha         1 9AO       0.128750
     68 H25         15.1980    -7.2250     9.8780 ha         1 9AO       0.130750
     69 H26         12.9020    -8.0880     9.6360 ha         1 9AO       0.135500
     70 H27         11.3030    -6.9420     8.1500 ha         1 9AO       0.130750
     71 H28         12.0010    -4.9330     6.9020 ha         1 9AO       0.128750
     72 H29         12.4600    -3.5990     1.9090 hc         1 9AO       0.073200
     73 H30         12.3310    -4.1980     3.5680 hc         1 9AO       0.073200
     74 H31         12.0850    -1.8780     4.3880 hc         1 9AO       0.071200
     75 H32         12.2150    -1.2780     2.7290 hc         1 9AO       0.071200
     76 H33         10.0650    -3.1610     3.7660 h1         1 9AO       0.048200
     77 H34         10.1950    -2.5620     2.1070 h1         1 9AO       0.048200
     78 H35         10.1550    -0.3210     3.8590 hn         1 9AO       0.516800
     79 H36          3.7960     0.8860     3.1200 h1         1 9AO       0.070700
     80 H37          3.7960    -0.8830     3.1210 h1         1 9AO       0.070700
     81 H38          1.6810     0.0000     2.0350 hn         1 9AO       0.321500
     82 H39         -1.5910     0.0620    -1.4430 hc         1 9AO       0.049700
     83 H40         -0.0990     0.8510    -1.9710 hc         1 9AO       0.049700
     84 H41         -0.2010    -0.9150    -1.9340 hc         1 9AO       0.049700
     85 H3           6.7500    -2.2650     3.4740 hn         1 9AO       0.477467
     86 H331         8.1680    -3.0080     3.1440 hn         1 9AO       0.477467
     87 O3          15.3210    -5.1750     3.4240 o          1 9AO      -0.552100
@<TRIPOS>BOND
     1    43     3 2
     2     3     1 1
     3     3    42 1
     4    44     1 1
     5     7    42 1
     6     7    41 1
     7    41     6 1
     8     6    39 1
     9    39     2 1
    10    39    40 2
    11     2    38 2
    12    36    35 1
    13    36    37 1
    14    38    37 1
    15    38     5 1
    16    35    34 1
    17    34    18 1
    18    18     8 1
    19    18    19 1
    20    87     8 2
    21     8     9 1
    22     9    10 1
    23    19    20 1
    24    10    11 1
    25    33    32 ar
    26    33    28 ar
    27    20    21 1
    28    20     4 2
    29    21    28 1
    30    21    22 1
    31    17    11 ar
    32    17    16 ar
    33    11    12 ar
    34    32    31 ar
    35    28    29 ar
    36    23    22 ar
    37    23    24 ar
    38    22    27 ar
    39    16    14 ar
    40    31    30 ar
    41    12    13 ar
    42    24    25 ar
    43    29    30 ar
    44    27    26 ar
    45    14    13 ar
    46    14    15 1
    47    25    26 ar
    48     1    45 1
    49     1    46 1
    50     5    47 1
    51     6    48 1
    52     7    49 1
    53     7    50 1
    54     9    51 1
    55    10    52 1
    56    10    53 1
    57    12    54 1
    58    13    55 1
    59    15    56 1
    60    16    57 1
    61    17    58 1
    62    18    59 1
    63    19    60 1
    64    21    61 1
    65    23    62 1
    66    24    63 1
    67    25    64 1
    68    26    65 1
    69    27    66 1
    70    29    67 1
    71    30    68 1
    72    31    69 1
    73    32    70 1
    74    33    71 1
    75    34    72 1
    76    34    73 1
    77    35    74 1
    78    35    75 1
    79    36    76 1
    80    36    77 1
    81    37    78 1
    82    41    79 1
    83    41    80 1
    84    42    81 1
    85    44    82 1
    86    44    83 1
    87    44    84 1
    88     5    85 1
    89    86     5 1
@<TRIPOS>SUBSTRUCTURE
     1 9AO         1 TEMP              0 ****  ****    0 ROOT
