@<TRIPOS>MOLECULE
9AO
   87    89     1     0     0
SMALL
bcc


@<TRIPOS>ATOM
      1 C1           0.0000     0.0000     0.0000 c3         1 9AO      -0.090400
      2 N2           7.6360     0.0020     3.7760 ne         1 9AO      -0.519100
      3 C2           1.5070     0.0000     0.0000 c          1 9AO       0.577100
      4 O2          13.6310    -4.9590     5.0690 o          1 9AO      -0.602100
      5 N3           7.6190    -2.1870     2.9840 nz         1 9AO       0.111400
      6 N1           5.6220     0.0010     2.6090 ns         1 9AO      -0.223900
      7 C3           3.6470     0.0010     1.1670 c3         1 9AO       0.046000
      8 C25         14.9170    -4.3400     2.6430 c          1 9AO       0.545100
      9 N6          15.1490    -4.4830     1.3230 ns         1 9AO      -0.197900
     10 C26         15.8890    -5.6480     0.8320 c3         1 9AO       0.116300
     11 C27         16.0100    -5.5700    -0.6690 ca         1 9AO      -0.154300
     12 C32         17.0930    -4.9280    -1.2400 ca         1 9AO      -0.064500
     13 C31         17.2060    -4.8550    -2.6150 ca         1 9AO      -0.139500
     14 C30         16.2320    -5.4260    -3.4220 ca         1 9AO       0.142100
     15 O4          16.3420    -5.3550    -4.7750 oh         1 9AO      -0.500100
     16 C29         15.1470    -6.0680    -2.8460 ca         1 9AO      -0.139500
     17 C28         15.0410    -6.1440    -1.4690 ca         1 9AO      -0.064500
     18 C10         14.1550    -3.1420     3.1490 c3         1 9AO      -0.074300
     19 N5          14.4350    -2.9520     4.5740 ns         1 9AO      -0.201900
     20 C11         14.1330    -3.9250     5.4560 c          1 9AO       0.623100
     21 C12         14.4210    -3.7290     6.9230 c3         1 9AO       0.001900
     22 C19         13.6600    -2.5310     7.4280 ca         1 9AO      -0.081300
     23 C24         12.2970    -2.4380     7.2140 ca         1 9AO      -0.094500
     24 C23         11.5980    -1.3390     7.6780 ca         1 9AO      -0.098250
     25 C22         12.2610    -0.3330     8.3560 ca         1 9AO      -0.091500
     26 C21         13.6250    -0.4280     8.5720 ca         1 9AO      -0.098250
     27 C20         14.3220    -1.5290     8.1110 ca         1 9AO      -0.094500
     28 C13         13.9930    -4.9560     7.6860 ca         1 9AO      -0.081300
     29 C18         14.8890    -5.5970     8.5220 ca         1 9AO      -0.094500
     30 C17         14.4960    -6.7220     9.2230 ca         1 9AO      -0.098250
     31 C16         13.2090    -7.2060     9.0880 ca         1 9AO      -0.091500
     32 C15         12.3130    -6.5640     8.2530 ca         1 9AO      -0.098250
     33 C14         12.7030    -5.4360     7.5570 ca         1 9AO      -0.094500
     34 C9          12.6560    -3.3700     2.9500 c3         1 9AO      -0.055400
     35 C8          11.8900    -2.1060     3.3470 c3         1 9AO      -0.034400
     36 C7          10.3900    -2.3330     3.1470 c3         1 9AO       0.122800
     37 N4           9.6580    -1.1230     3.5270 nu         1 9AO      -0.383200
     38 C6           8.2970    -1.0910     3.4330 c2         1 9AO       0.288100
     39 C5           6.2960     0.0010     3.7770 c          1 9AO       0.632500
     40 O1           5.6870     0.0010     4.8310 o          1 9AO      -0.573100
     41 C4           4.1570     0.0010     2.6100 c3         1 9AO       0.041000
     42 N            2.1810     0.0000     1.1680 ns         1 9AO      -0.213900
     43 O            2.1140     0.0000    -1.0510 o          1 9AO      -0.634100
     44 C           -0.5100    -0.0000    -1.4420 c3         1 9AO       0.021900
     45 H1          -0.3610    -0.8840     0.5110 hc         1 9AO       0.028700
     46 H2          -0.3610     0.8850     0.5100 hc         1 9AO       0.028700
     47 H4           7.5390    -2.1440     1.9870 hn         1 9AO       0.238133
     48 H5           6.1220    -0.0300     1.7430 hn         1 9AO       0.171500
     49 H6           4.0070     0.8850     0.6560 h1         1 9AO       0.024200
     50 H7           4.0080    -0.8840     0.6570 h1         1 9AO       0.024200
     51 H8          14.8340    -3.7830     0.6810 hn         1 9AO       0.171500
     52 H9          16.8780    -5.6610     1.2740 h1         1 9AO       0.033700
     53 H10         15.3600    -6.5530     1.1050 h1         1 9AO       0.033700
     54 H11         17.8530    -4.4830    -0.6100 ha         1 9AO       0.107500
     55 H12         18.0550    -4.3530    -3.0630 ha         1 9AO       0.119500
     56 H13         16.8540    -6.0820    -5.0880 ho         1 9AO       0.412000
     57 H14         14.3860    -6.5160    -3.4730 ha         1 9AO       0.119500
     58 H15         14.1930    -6.6450    -1.0180 ha         1 9AO       0.107500
     59 H16         14.4620    -2.2600     2.6000 h1         1 9AO       0.035700
     60 H17         14.8240    -2.0330     4.5050 hn         1 9AO       0.193500
     61 H18         15.4830    -3.5680     7.0640 hc         1 9AO       0.054700
     62 H19         11.7770    -3.2250     6.6820 ha         1 9AO       0.107500
     63 H20         10.5310    -1.2650     7.5090 ha         1 9AO       0.102250
     64 H21         11.7140     0.5290     8.7180 ha         1 9AO       0.107000
     65 H22         14.1450     0.3580     9.1050 ha         1 9AO       0.102250
     66 H23         15.3890    -1.6030     8.2800 ha         1 9AO       0.107500
     67 H24         15.8980    -5.2180     8.6280 ha         1 9AO       0.107500
     68 H25         15.1980    -7.2250     9.8780 ha         1 9AO       0.102250
     69 H26         12.9020    -8.0880     9.6360 ha         1 9AO       0.107000
     70 H27         11.3030    -6.9420     8.1500 ha         1 9AO       0.102250
     71 H28         12.0010    -4.9330     6.9020 ha         1 9AO       0.107500
     72 H29         12.3310    -4.1990     3.5680 hc         1 9AO       0.047700
     73 H30         12.4610    -3.5980     1.9090 hc         1 9AO       0.047700
     74 H31         12.2150    -1.2780     2.7290 hc         1 9AO       0.038700
     75 H32         12.0850    -1.8780     4.3880 hc         1 9AO       0.038700
     76 H33         10.1950    -2.5620     2.1070 h1         1 9AO       0.022200
     77 H34         10.0650    -3.1610     3.7660 h1         1 9AO       0.022200
     78 H35         10.1550    -0.3210     3.8610 hn         1 9AO       0.354800
     79 H36          3.7960     0.8860     3.1200 h1         1 9AO       0.039700
     80 H37          3.7950    -0.8830     3.1210 h1         1 9AO       0.039700
     81 H38          1.6810    -0.0000     2.0350 hn         1 9AO       0.183500
     82 H39         -0.1490    -0.8850    -1.9530 hc         1 9AO       0.013367
     83 H40         -1.5930    -0.0010    -1.4420 hc         1 9AO       0.013367
     84 H41         -0.1490     0.8840    -1.9530 hc         1 9AO       0.013367
     85 H3           6.7050    -2.2040     3.3920 hn         1 9AO       0.238133
     86 H331         8.1160    -3.0160     3.2430 hn         1 9AO       0.238133
     87 O3          15.3210    -5.1750     3.4240 o          1 9AO      -0.592100
@<TRIPOS>BOND
     1     1     3 1   
     2     1    44 1   
     3     1    45 1   
     4     1    46 1   
     5     2    38 2   
     6     2    39 1   
     7     3    42 1   
     8     3    43 2   
     9     4    20 2   
    10     5    38 1   
    11     5    47 1   
    12     5    85 1   
    13     5    86 1   
    14     6    39 1   
    15     6    41 1   
    16     6    48 1   
    17     7    41 1   
    18     7    42 1   
    19     7    49 1   
    20     7    50 1   
    21     8     9 1   
    22     8    18 1   
    23     8    87 2   
    24     9    10 1   
    25     9    51 1   
    26    10    11 1   
    27    10    52 1   
    28    10    53 1   
    29    11    12 ar  
    30    11    17 ar  
    31    12    13 ar  
    32    12    54 1   
    33    13    14 ar  
    34    13    55 1   
    35    14    15 1   
    36    14    16 ar  
    37    15    56 1   
    38    16    17 ar  
    39    16    57 1   
    40    17    58 1   
    41    18    19 1   
    42    18    34 1   
    43    18    59 1   
    44    19    20 1   
    45    19    60 1   
    46    20    21 1   
    47    21    22 1   
    48    21    28 1   
    49    21    61 1   
    50    22    23 ar  
    51    22    27 ar  
    52    23    24 ar  
    53    23    62 1   
    54    24    25 ar  
    55    24    63 1   
    56    25    26 ar  
    57    25    64 1   
    58    26    27 ar  
    59    26    65 1   
    60    27    66 1   
    61    28    29 ar  
    62    28    33 ar  
    63    29    30 ar  
    64    29    67 1   
    65    30    31 ar  
    66    30    68 1   
    67    31    32 ar  
    68    31    69 1   
    69    32    33 ar  
    70    32    70 1   
    71    33    71 1   
    72    34    35 1   
    73    34    72 1   
    74    34    73 1   
    75    35    36 1   
    76    35    74 1   
    77    35    75 1   
    78    36    37 1   
    79    36    76 1   
    80    36    77 1   
    81    37    38 1   
    82    37    78 1   
    83    39    40 2   
    84    41    79 1   
    85    41    80 1   
    86    42    81 1   
    87    44    82 1   
    88    44    83 1   
    89    44    84 1   
@<TRIPOS>SUBSTRUCTURE
     1 9AO         1 TEMP              0 ****  ****    0 ROOT
