@<TRIPOS>MOLECULE
molecule
   26    28     1     0     0
SMALL
bcc


@<TRIPOS>ATOM
      1 C1           0.0000     0.0000     0.0000 ca         1 9AP      -0.133000
      2 C2           1.3650     0.0000     0.0000 ca         1 9AP      -0.109000
      3 C3          -0.0640    -0.0100     2.3940 ca         1 9AP      -0.121000
      4 C4           2.0580     0.0000     1.2150 ca         1 9AP      -0.056000
      5 C5          -0.7130    -0.0050     1.1920 ca         1 9AP      -0.120000
      6 C6           1.3320    -0.0100     2.4270 ca         1 9AP      -0.003000
      7 C7           3.5200    -0.0050     1.2560 ca         1 9AP       0.201600
      8 C8           4.1770    -0.0100     2.4410 ca         1 9AP      -0.209000
      9 N1           4.2430    -0.0000     0.0650 nv         1 9AP      -0.939200
     10 C9           3.4810    -0.0150     3.6700 ca         1 9AP       0.008000
     11 C10          4.1830    -0.0200     4.8870 ca         1 9AP      -0.129000
     12 C11          2.0690    -0.0150     3.6920 ca         1 9AP      -0.053000
     13 C12          3.4990    -0.0250     6.0650 ca         1 9AP      -0.118000
     14 C13          2.1090    -0.0250     6.0830 ca         1 9AP      -0.141000
     15 C14          1.3970    -0.0200     4.9170 ca         1 9AP      -0.106000
     16 H1          -0.5340     0.0040    -0.9420 ha         1 9AP       0.128000
     17 H2           1.9090     0.0040    -0.9370 ha         1 9AP       0.129000
     18 H3          -0.6300    -0.0140     3.3180 ha         1 9AP       0.135000
     19 H5          -1.7960    -0.0050     1.1680 ha         1 9AP       0.129000
     20 H8           5.2600    -0.0070     2.4470 ha         1 9AP       0.132000
     21 HN11         5.0930    -0.5240    -0.0070 hn         1 9AP       0.430300
     22 HN12         3.9260     0.5470    -0.7110 hn         1 9AP       0.430300
     23 H10          5.2660    -0.0200     4.8880 ha         1 9AP       0.131000
     24 H12          4.0460    -0.0290     7.0000 ha         1 9AP       0.126000
     25 H13          1.5850    -0.0290     7.0310 ha         1 9AP       0.127000
     26 H14          0.3140    -0.0200     4.9430 ha         1 9AP       0.130000
@<TRIPOS>BOND
     1     1     2 ar
     2     1     5 ar
     3     1    16 1
     4     2     4 ar
     5     2    17 1
     6     3     5 ar
     7     3     6 ar
     8     3    18 1
     9     4     6 ar
    10     4     7 ar
    11     5    19 1
    12     6    12 ar
    13     7     8 ar
    14     7     9 1
    15     8    10 ar
    16     8    20 1
    17     9    21 1
    18     9    22 1
    19    10    11 ar
    20    10    12 ar
    21    11    13 ar
    22    11    23 1
    23    12    15 ar
    24    13    14 ar
    25    13    24 1
    26    14    15 ar
    27    14    25 1
    28    15    26 1
@<TRIPOS>SUBSTRUCTURE
     1 9AP         1 TEMP              0 ****  ****    0 ROOT
