@<TRIPOS>MOLECULE
molecule
   34    36     1     0     0
SMALL
bcc


@<TRIPOS>ATOM
      1 CAA          0.0000     0.0000     0.0000 c3         1 9AQ      -0.093100
      2 CAB          1.5300     0.0000     0.0000 c3         1 9AQ       0.133400
      3 OAC          2.0060     0.0000     1.3480 os         1 9AQ      -0.324900
      4 CAD          3.3530    -0.0010     1.5250 ca         1 9AQ       0.170100
      5 CAI          3.8820     0.0000     2.8110 ca         1 9AQ      -0.199000
      6 CAH          5.2460    -0.0010     2.9950 ca         1 9AQ      -0.050000
      7 CAE          4.1970    -0.0070     0.4220 ca         1 9AQ      -0.199000
      8 CAF          5.5640    -0.0090     0.5980 ca         1 9AQ      -0.050000
      9 CAG          6.0990    -0.0020     1.8880 ca         1 9AQ      -0.194900
     10 CAJ          7.5630    -0.0030     2.0820 cc         1 9AQ       0.565500
     11 NAK          8.0310    -0.0020     3.3050 nd         1 9AQ      -0.655100
     12 CAL          9.3560    -0.0040     3.5550 ca         1 9AQ       0.203400
     13 CAQ          9.8520    -0.0030     4.8620 ca         1 9AQ      -0.125000
     14 CAP         11.2010    -0.0030     5.0750 ca         1 9AQ      -0.091000
     15 CAO         12.0940    -0.0050     4.0120 ca         1 9AQ      -0.158000
     16 CAN         11.6350    -0.0060     2.7120 ca         1 9AQ      -0.050000
     17 CAM         10.2630    -0.0050     2.4700 ca         1 9AQ      -0.211600
     18 CAR          9.7140    -0.0050     1.1070 c          1 9AQ       0.709100
     19 OAS         10.4450    -0.0070     0.1320 o          1 9AQ      -0.627500
     20 NAT          8.3680    -0.0100     0.9750 ns         1 9AQ      -0.472400
     21 H1          -0.3610    -0.8850     0.5110 hc         1 9AQ       0.050367
     22 H2          -0.3610     0.0000    -1.0210 hc         1 9AQ       0.050367
     23 H3          -0.3610     0.8840     0.5110 hc         1 9AQ       0.050367
     24 H4           1.8920    -0.8850    -0.5110 h1         1 9AQ       0.036700
     25 H5           1.8920     0.8850    -0.5110 h1         1 9AQ       0.036700
     26 H6           3.2200     0.0010     3.6680 ha         1 9AQ       0.147000
     27 H7           5.6580     0.0030     3.9970 ha         1 9AQ       0.147000
     28 H8           3.7810    -0.0130    -0.5780 ha         1 9AQ       0.147000
     29 H9           6.2220    -0.0120    -0.2630 ha         1 9AQ       0.147000
     30 H10          9.1690    -0.0010     5.7020 ha         1 9AQ       0.148000
     31 H11         11.5810    -0.0030     6.0900 ha         1 9AQ       0.133000
     32 H12         13.1600    -0.0060     4.2050 ha         1 9AQ       0.135000
     33 H13         12.3350    -0.0070     1.8850 ha         1 9AQ       0.154000
     34 H14          7.9580    -0.0180     0.0620 hn         1 9AQ       0.338500
@<TRIPOS>BOND
     1    15    16 ar
     2    15    14 ar
     3    16    17 ar
     4    14    13 ar
     5    19    18 2
     6    17    18 1
     7    17    12 ar
     8    18    20 1
     9    13    12 ar
    10    12    11 1
    11    20    10 1
    12    11    10 2
    13    10     9 1
    14     9     6 ar
    15     9     8 ar
    16     6     5 ar
    17     8     7 ar
    18     5     4 ar
    19     7     4 ar
    20     4     3 1
    21     3     2 1
    22     2     1 1
    23     1    21 1
    24     1    22 1
    25     1    23 1
    26     2    24 1
    27     2    25 1
    28     5    26 1
    29     6    27 1
    30     7    28 1
    31     8    29 1
    32    13    30 1
    33    14    31 1
    34    15    32 1
    35    16    33 1
    36    20    34 1
@<TRIPOS>SUBSTRUCTURE
     1 9AQ         1 TEMP              0 ****  ****    0 ROOT
