@<TRIPOS>MOLECULE
9AQ
   34    36     1     0     0
SMALL
bcc


@<TRIPOS>ATOM
      1 CAA          0.0000     0.0000     0.0000 c3         1 9AQ       0.001900
      2 CAB          1.5300     0.0000     0.0000 c3         1 9AQ       0.201400
      3 OAC          2.0060     0.0000     1.3480 os         1 9AQ      -0.302900
      4 CAD          3.3530    -0.0010     1.5250 ca         1 9AQ       0.177100
      5 CAI          3.8820     0.0000     2.8110 ca         1 9AQ      -0.183000
      6 CAH          5.2460    -0.0010     2.9950 ca         1 9AQ      -0.023500
      7 CAE          4.1970    -0.0070     0.4220 ca         1 9AQ      -0.183000
      8 CAF          5.5640    -0.0090     0.5980 ca         1 9AQ      -0.023500
      9 CAG          6.0990    -0.0020     1.8880 ca         1 9AQ      -0.207900
     10 CAJ          7.5630    -0.0030     2.0820 cc         1 9AQ       0.370500
     11 NAK          8.0310    -0.0020     3.3050 nd         1 9AQ      -0.545100
     12 CAL          9.3560    -0.0040     3.5550 ca         1 9AQ       0.159400
     13 CAQ          9.8520    -0.0030     4.8620 ca         1 9AQ      -0.101000
     14 CAP         11.2010    -0.0030     5.0750 ca         1 9AQ      -0.063000
     15 CAO         12.0940    -0.0050     4.0120 ca         1 9AQ      -0.132000
     16 CAN         11.6350    -0.0060     2.7120 ca         1 9AQ      -0.014000
     17 CAM         10.2630    -0.0050     2.4700 ca         1 9AQ      -0.219600
     18 CAR          9.7140    -0.0050     1.1070 c          1 9AQ       0.620100
     19 OAS         10.4450    -0.0070     0.1320 o          1 9AQ      -0.669500
     20 NAT          8.3680    -0.0100     0.9750 ns         1 9AQ      -0.017400
     21 H1          -0.3610    -0.8850     0.5110 hc         1 9AQ       0.012367
     22 H2          -0.3610     0.0000    -1.0210 hc         1 9AQ       0.012367
     23 H3          -0.3610     0.8840     0.5110 hc         1 9AQ       0.012367
     24 H4           1.8920    -0.8850    -0.5110 h1         1 9AQ       0.000700
     25 H5           1.8920     0.8850    -0.5110 h1         1 9AQ       0.000700
     26 H6           3.2200     0.0010     3.6680 ha         1 9AQ       0.123500
     27 H7           5.6580     0.0030     3.9970 ha         1 9AQ       0.115500
     28 H8           3.7810    -0.0130    -0.5780 ha         1 9AQ       0.123500
     29 H9           6.2220    -0.0120    -0.2630 ha         1 9AQ       0.115500
     30 H10          9.1690    -0.0010     5.7020 ha         1 9AQ       0.118000
     31 H11         11.5810    -0.0030     6.0900 ha         1 9AQ       0.101000
     32 H12         13.1600    -0.0060     4.2050 ha         1 9AQ       0.107000
     33 H13         12.3350    -0.0070     1.8850 ha         1 9AQ       0.124000
     34 H14          7.9580    -0.0180     0.0620 hn         1 9AQ       0.189500
@<TRIPOS>BOND
     1     1     2 1   
     2     1    21 1   
     3     1    22 1   
     4     1    23 1   
     5     2     3 1   
     6     2    24 1   
     7     2    25 1   
     8     3     4 1   
     9     4     5 ar  
    10     4     7 ar  
    11     5     6 ar  
    12     5    26 1   
    13     6     9 ar  
    14     6    27 1   
    15     7     8 ar  
    16     7    28 1   
    17     8     9 ar  
    18     8    29 1   
    19     9    10 1   
    20    10    11 2   
    21    10    20 1   
    22    11    12 1   
    23    12    13 ar  
    24    12    17 ar  
    25    13    14 ar  
    26    13    30 1   
    27    14    15 ar  
    28    14    31 1   
    29    15    16 ar  
    30    15    32 1   
    31    16    17 ar  
    32    16    33 1   
    33    17    18 1   
    34    18    19 2   
    35    18    20 1   
    36    20    34 1   
@<TRIPOS>SUBSTRUCTURE
     1 9AQ         1 TEMP              0 ****  ****    0 ROOT
