@<TRIPOS>MOLECULE
molecule
   36    39     1     0     0
SMALL
bcc


@<TRIPOS>ATOM
      1 C1           0.0000     0.0000     0.0000 ca         1 9AR      -0.015600
      2 C2           1.3950     0.0000     0.0000 ca         1 9AR      -0.076000
      3 C3           2.0990     0.0000     1.1920 ca         1 9AR       0.033100
      4 C4           1.4240     0.0010     2.4100 ca         1 9AR       0.003100
      5 C5           0.0230    -0.0050     2.4320 ca         1 9AR      -0.004000
      6 C6          -0.6960    -0.0020     1.2240 ca         1 9AR      -0.020000
      7 C7          -0.7140     0.0040     3.7020 ca         1 9AR      -0.010000
      8 C8          -2.1300    -0.0010     3.6920 ca         1 9AR      -0.036000
      9 C9          -2.8350    -0.0040     2.4810 ca         1 9AR      -0.101000
     10 C10         -2.1660    -0.0040     1.2580 ca         1 9AR      -0.056200
     11 C11         -0.0300     0.0100     4.9170 ca         1 9AR      -0.102000
     12 C12         -0.7300     0.0190     6.1050 ca         1 9AR      -0.174000
     13 C13         -2.1210     0.0210     6.1100 ca         1 9AR       0.079100
     14 C14         -2.8270     0.0140     4.9200 ca         1 9AR       0.082100
     15 C15          3.5780    -0.4130     2.8130 c3         1 9AR       0.332200
     16 C16         -0.7400    -0.0000    -1.2720 c          1 9AR       0.879200
     17 C17         -4.5960     1.3830     4.9290 c3         1 9AR       0.115700
     18 O1          -4.1850     0.0160     4.9330 os         1 9AR      -0.317900
     19 O2           3.4420    -0.0010     1.4410 os         1 9AR      -0.332900
     20 O3           2.3400     0.0000     3.4190 os         1 9AR      -0.342900
     21 O4          -1.4970     0.9130    -1.5350 o          1 9AR      -0.802300
     22 O5          -0.5780    -1.0130    -2.1460 o          1 9AR      -0.802300
     23 O6          -2.7910     0.0290     7.2930 oh         1 9AR      -0.514100
     24 O7          -2.7600    -1.1060    -0.7700 o          1 9AR      -0.149000
     25 O8          -3.5820     0.9340    -0.1590 o          1 9AR      -0.149000
     26 N1          -2.8610    -0.0070     0.1180 no         1 9AR       0.232200
     27 H21          2.2170     0.0490    -0.7040 ha         1 9AR       0.156000
     28 H91         -3.9190    -0.0100     2.4960 ha         1 9AR       0.157000
     29 H111         1.0530     0.0090     4.9280 ha         1 9AR       0.163000
     30 H121        -0.1910     0.0240     7.0440 ha         1 9AR       0.130000
     31 H151         4.4160     0.0900     3.2800 h2         1 9AR       0.056700
     32 H152         3.6890    -1.4890     2.8760 h2         1 9AR       0.056700
     33 H171        -5.3300     1.5370     4.1470 h1         1 9AR       0.038700
     34 H172        -5.0340     1.6310     5.8880 h1         1 9AR       0.038700
     35 H173        -3.7370     2.0180     4.7490 h1         1 9AR       0.038700
     36 H61         -2.5730    -0.7460     7.7830 ho         1 9AR       0.415000
@<TRIPOS>BOND
     1     1     2 ar
     2     1     6 ar
     3     1    16 1
     4     2     3 ar
     5     2    27 1
     6     3     4 ar
     7     3    19 1
     8     4     5 ar
     9     4    20 1
    10     5     6 ar
    11     5     7 ar
    12     6    10 ar
    13     7     8 ar
    14     7    11 ar
    15     8     9 ar
    16     8    14 ar
    17     9    10 ar
    18     9    28 1
    19    10    26 1
    20    11    12 ar
    21    11    29 1
    22    12    13 ar
    23    12    30 1
    24    13    14 ar
    25    13    23 1
    26    14    18 1
    27    15    19 1
    28    15    20 1
    29    15    31 1
    30    15    32 1
    31    16    21 1
    32    16    22 1
    33    17    18 1
    34    17    33 1
    35    17    34 1
    36    17    35 1
    37    23    36 1
    38    24    26 1
    39    25    26 1
@<TRIPOS>SUBSTRUCTURE
     1 9AR         1 TEMP              0 ****  ****    0 ROOT
