@<TRIPOS>MOLECULE
molecule
   36    39     1     0     0
SMALL
bcc


@<TRIPOS>ATOM
      1 CAW          0.0000     0.0000     0.0000 ca         1 9AW      -0.237300
      2 CAV          1.3840     0.0000     0.0000 ca         1 9AW      -0.090000
      3 CAU          2.0470     0.0000     1.2190 ca         1 9AW      -0.252300
      4 CAT          1.3110    -0.0010     2.3900 ca         1 9AW       0.425200
      5 NAS         -0.0050    -0.0010     2.3620 nb         1 9AW      -0.689000
      6 CAR         -0.6770     0.0050     1.2170 cp         1 9AW       0.473800
      7 CAO         -2.1590     0.0050     1.2340 cp         1 9AW      -0.121500
      8 CAP         -2.8420     0.0100     2.4510 ca         1 9AW      -0.109000
      9 CAQ         -4.2200     0.0110     2.4680 ca         1 9AW      -0.096000
     10 CAN         -2.8710     0.0070     0.0340 ca         1 9AW      -0.109000
     11 CAM         -4.2480     0.0080     0.0490 ca         1 9AW      -0.096000
     12 CAL         -4.9330     0.0070     1.2660 ca         1 9AW      -0.142900
     13 CAD         -6.4100     0.0080     1.2830 cc         1 9AW       0.556500
     14 NAE         -7.0470     0.0080     0.1390 nd         1 9AW      -0.649100
     15 CAF         -8.3930     0.0090     0.0800 ca         1 9AW       0.200400
     16 CAK         -9.0700     0.0100    -1.1430 ca         1 9AW      -0.123000
     17 CAJ        -10.4360     0.0110    -1.1630 ca         1 9AW      -0.092000
     18 CAI        -11.1680     0.0110     0.0170 ca         1 9AW      -0.155000
     19 CAH        -10.5290     0.0100     1.2380 ca         1 9AW      -0.051000
     20 CAG         -9.1370     0.0080     1.2820 ca         1 9AW      -0.208600
     21 CAB         -8.4000     0.0070     2.5540 c          1 9AW       0.709100
     22 OAA         -8.9840     0.0070     3.6220 o          1 9AW      -0.624500
     23 NAC         -7.0480     0.0010     2.4930 ns         1 9AW      -0.471400
     24 H1          -0.5490     0.0020    -0.9340 ha         1 9AW       0.142000
     25 H2           1.9380    -0.0020    -0.9310 ha         1 9AW       0.140000
     26 H3           3.1290     0.0000     1.2540 ha         1 9AW       0.140000
     27 H4           1.8240    -0.0030     3.3440 h4         1 9AW       0.025100
     28 H5          -2.2900     0.0130     3.3830 ha         1 9AW       0.150500
     29 H6          -4.7500     0.0130     3.4120 ha         1 9AW       0.146500
     30 H7          -2.3390     0.0080    -0.9100 ha         1 9AW       0.150500
     31 H8          -4.7990     0.0070    -0.8840 ha         1 9AW       0.146500
     32 H9          -8.5130     0.0100    -2.0720 ha         1 9AW       0.147000
     33 H10        -10.9550     0.0120    -2.1140 ha         1 9AW       0.134000
     34 H11        -12.2510     0.0120    -0.0230 ha         1 9AW       0.136000
     35 H12        -11.1050     0.0100     2.1560 ha         1 9AW       0.154000
     36 H13         -6.5110    -0.0090     3.3380 hn         1 9AW       0.340500
@<TRIPOS>BOND
     1    18    19 ar
     2    18    17 ar
     3    19    20 ar
     4    17    16 ar
     5    22    21 2
     6    20    21 1
     7    20    15 ar
     8    21    23 1
     9    16    15 ar
    10    15    14 1
    11    23    13 1
    12    14    13 2
    13    13    12 1
    14    12    11 ar
    15    12     9 ar
    16    11    10 ar
    17     9     8 ar
    18    10     7 ar
    19     8     7 ar
    20     7     6 1
    21     6     1 ar
    22     6     5 ar
    23     1     2 ar
    24     5     4 ar
    25     2     3 ar
    26     4     3 ar
    27     1    24 1
    28     2    25 1
    29     3    26 1
    30     4    27 1
    31     8    28 1
    32     9    29 1
    33    10    30 1
    34    11    31 1
    35    16    32 1
    36    17    33 1
    37    18    34 1
    38    19    35 1
    39    23    36 1
@<TRIPOS>SUBSTRUCTURE
     1 9AW         1 TEMP              0 ****  ****    0 ROOT
