@<TRIPOS>MOLECULE
9AW
   36    39     1     0     0
SMALL
bcc


@<TRIPOS>ATOM
      1 CAW          0.0000     0.0000     0.0000 ca         1 9AW      -0.213300
      2 CAV          1.3840     0.0000     0.0000 ca         1 9AW      -0.064000
      3 CAU          2.0470     0.0000     1.2190 ca         1 9AW      -0.220300
      4 CAT          1.3110    -0.0010     2.3900 ca         1 9AW       0.407200
      5 NAS         -0.0050    -0.0010     2.3620 nb         1 9AW      -0.573000
      6 CAR         -0.6770     0.0050     1.2170 cp         1 9AW       0.431800
      7 CAO         -2.1590     0.0050     1.2340 cp         1 9AW      -0.130500
      8 CAP         -2.8420     0.0100     2.4510 ca         1 9AW      -0.085500
      9 CAQ         -4.2200     0.0110     2.4680 ca         1 9AW      -0.074500
     10 CAN         -2.8710     0.0070     0.0340 ca         1 9AW      -0.085500
     11 CAM         -4.2480     0.0080     0.0490 ca         1 9AW      -0.074500
     12 CAL         -4.9330     0.0070     1.2660 ca         1 9AW      -0.153900
     13 CAD         -6.4100     0.0080     1.2830 cc         1 9AW       0.359500
     14 NAE         -7.0470     0.0080     0.1390 nd         1 9AW      -0.538100
     15 CAF         -8.3930     0.0090     0.0800 ca         1 9AW       0.156400
     16 CAK         -9.0700     0.0100    -1.1430 ca         1 9AW      -0.100000
     17 CAJ        -10.4360     0.0110    -1.1630 ca         1 9AW      -0.064000
     18 CAI        -11.1680     0.0110     0.0170 ca         1 9AW      -0.130000
     19 CAH        -10.5290     0.0100     1.2380 ca         1 9AW      -0.015000
     20 CAG         -9.1370     0.0080     1.2820 ca         1 9AW      -0.217600
     21 CAB         -8.4000     0.0070     2.5540 c          1 9AW       0.620100
     22 OAA         -8.9840     0.0070     3.6220 o          1 9AW      -0.665500
     23 NAC         -7.0480     0.0010     2.4930 ns         1 9AW      -0.016400
     24 H1          -0.5490     0.0020    -0.9340 ha         1 9AW       0.122000
     25 H2           1.9380    -0.0020    -0.9310 ha         1 9AW       0.109000
     26 H3           3.1290     0.0000     1.2540 ha         1 9AW       0.114000
     27 H4           1.8240    -0.0030     3.3440 h4         1 9AW      -0.019900
     28 H5          -2.2900     0.0130     3.3830 ha         1 9AW       0.122000
     29 H6          -4.7500     0.0130     3.4120 ha         1 9AW       0.117500
     30 H7          -2.3390     0.0080    -0.9100 ha         1 9AW       0.122000
     31 H8          -4.7990     0.0070    -0.8840 ha         1 9AW       0.117500
     32 H9          -8.5130     0.0100    -2.0720 ha         1 9AW       0.118000
     33 H10        -10.9550     0.0120    -2.1140 ha         1 9AW       0.102000
     34 H11        -12.2510     0.0120    -0.0230 ha         1 9AW       0.107000
     35 H12        -11.1050     0.0100     2.1560 ha         1 9AW       0.124000
     36 H13         -6.5110    -0.0090     3.3380 hn         1 9AW       0.191500
@<TRIPOS>BOND
     1     1     2 ar  
     2     1     6 ar  
     3     1    24 1   
     4     2     3 ar  
     5     2    25 1   
     6     3     4 ar  
     7     3    26 1   
     8     4     5 ar  
     9     4    27 1   
    10     5     6 ar  
    11     6     7 1   
    12     7     8 ar  
    13     7    10 ar  
    14     8     9 ar  
    15     8    28 1   
    16     9    12 ar  
    17     9    29 1   
    18    10    11 ar  
    19    10    30 1   
    20    11    12 ar  
    21    11    31 1   
    22    12    13 1   
    23    13    14 2   
    24    13    23 1   
    25    14    15 1   
    26    15    16 ar  
    27    15    20 ar  
    28    16    17 ar  
    29    16    32 1   
    30    17    18 ar  
    31    17    33 1   
    32    18    19 ar  
    33    18    34 1   
    34    19    20 ar  
    35    19    35 1   
    36    20    21 1   
    37    21    22 2   
    38    21    23 1   
    39    23    36 1   
@<TRIPOS>SUBSTRUCTURE
     1 9AW         1 TEMP              0 ****  ****    0 ROOT
