@<TRIPOS>MOLECULE
molecule
   62    63     1     0     0
SMALL
bcc


@<TRIPOS>ATOM
      1 O1A          0.0000     0.0000     0.0000 o          1 9AX      -0.849500
      2 O2A          2.0170     0.0000     1.5180 o          1 9AX      -0.849500
      3 O3A          2.0170    -1.3150    -0.7580 os         1 9AX      -0.699800
      4 O            2.0180     1.3140    -0.7590 os         1 9AX      -0.540200
      5 C2           5.2020    10.2030    -0.6540 c3         1 9AX      -0.083400
      6 C5           5.7920     8.8600    -3.1000 c2         1 9AX      -0.100400
      7 C4           6.8890     9.6560    -2.4140 c3         1 9AX      -0.026800
      8 C6           5.8960     8.6440    -4.3780 c2         1 9AX      -0.186200
      9 C7           4.8730     7.8770    -5.1670 c3         1 9AX      -0.041200
     10 PA           1.4800     0.0000     0.0000 p5         1 9AX       1.397800
     11 PB           1.5520    -2.8570    -0.7880 p5         1 9AX       1.292900
     12 C15          1.6290     2.6390    -0.3910 c3         1 9AX       0.236600
     13 C14          2.3090     3.6320    -1.2980 c2         1 9AX      -0.469200
     14 C13          2.8630     4.7070    -0.7950 c2         1 9AX      -0.065400
     15 C16          2.7080     5.0180     0.6720 c3         1 9AX      -0.110900
     16 C12          3.6540     5.6330    -1.6820 c3         1 9AX      -0.031200
     17 C11          2.7500     6.7690    -2.1680 c3         1 9AX      -0.071400
     18 C9           3.5540     7.7080    -3.0710 c3         1 9AX      -0.052000
     19 C20          2.6240     8.7880    -3.6280 c3         1 9AX      -0.087100
     20 C10          4.6530     8.3670    -2.2560 c3         1 9AX      -0.020500
     21 C1           4.0790     9.5340    -1.4480 c3         1 9AX      -0.072400
     22 C3           6.2370    10.7880    -1.6150 c3         1 9AX      -0.065400
     23 C8           4.1460     6.9070    -4.2300 c3         1 9AX      -0.058700
     24 C17          3.0250     6.1970    -4.9920 c3         1 9AX      -0.092100
     25 H4           4.7870    10.9980    -0.0450 hc         1 9AX       0.037700
     26 H5           5.6790     9.4670    -0.0170 hc         1 9AX       0.037700
     27 H6           6.7610     9.0350    -4.8990 ha         1 9AX       0.110000
     28 H7           4.1580     8.5670    -5.5990 hc         1 9AX       0.040700
     29 H8           5.3670     7.3190    -5.9530 hc         1 9AX       0.040700
     30 H9           0.5550     2.7390    -0.4860 h1         1 9AX       0.008700
     31 H10          1.9200     2.8290     0.6350 h1         1 9AX       0.008700
     32 H11          1.2900     3.7730    -0.9600 ha         1 9AX       0.345000
     33 H12          3.2430     4.2790     1.2560 hc         1 9AX       0.035033
     34 H13          1.6580     4.9960     0.9360 hc         1 9AX       0.035033
     35 H14          3.1120     6.0020     0.8770 hc         1 9AX       0.035033
     36 H15          4.0310     5.0820    -2.5350 hc         1 9AX       0.046200
     37 H16          4.4850     6.0470    -1.1230 hc         1 9AX       0.046200
     38 H17          2.3750     7.3220    -1.3150 hc         1 9AX       0.045200
     39 H18          1.9180     6.3560    -2.7250 hc         1 9AX       0.045200
     40 H19          3.2140     9.6210    -3.9890 hc         1 9AX       0.028700
     41 H20          1.9580     9.1300    -2.8450 hc         1 9AX       0.028700
     42 H21          2.0420     8.3770    -4.4440 hc         1 9AX       0.028700
     43 H22          5.0420     7.6330    -1.5600 hc         1 9AX       0.077700
     44 H23          3.3250     9.1630    -0.7640 hc         1 9AX       0.044700
     45 H24          3.6360    10.2570    -2.1230 hc         1 9AX       0.044700
     46 H25          5.7480    11.4740    -2.2960 hc         1 9AX       0.031200
     47 H26          6.9970    11.3130    -1.0490 hc         1 9AX       0.031200
     48 H27          8.4550     9.3150    -0.9820 hc         1 9AX       0.034033
     49 H28          7.0040     8.3370    -0.7200 hc         1 9AX       0.034033
     50 H29          8.1180     7.9340    -2.0340 hc         1 9AX       0.034033
     51 H30          8.3400     9.4400    -3.9860 hc         1 9AX       0.034033
     52 H31          7.2650    10.8330    -4.1730 hc         1 9AX       0.034033
     53 H32          8.5680    10.8750    -2.9770 hc         1 9AX       0.034033
     54 H33          4.8500     6.1790    -3.8460 hc         1 9AX       0.074700
     55 H34          3.1810     5.1260    -4.9500 hc         1 9AX       0.041367
     56 H35          2.0710     6.4410    -4.5400 hc         1 9AX       0.041367
     57 H36          3.0280     6.5230    -6.0250 hc         1 9AX       0.041367
     58 C18          7.6740     8.7440    -1.4680 c3         1 9AX      -0.081100
     59 O1B          0.0810    -2.9250    -0.9300 o          1 9AX      -0.942833
     60 O2B          2.2470    -3.6020    -2.0350 o          1 9AX      -0.942833
     61 O3B          1.9950    -3.5770     0.5820 o          1 9AX      -0.942833
     62 C19          7.8350    10.2440    -3.4640 c3         1 9AX      -0.081100
@<TRIPOS>BOND
     1     1    10 1
     2    59    11 1
     3     2    10 1
     4    10     3 1
     5    10     4 1
     6     3    11 1
     7    11    61 1
     8    11    60 1
     9    15    14 1
    10     4    12 1
    11    12    13 1
    12    14    13 2
    13    14    16 1
    14     5    21 1
    15     5    22 1
    16    21    20 1
    17    22     7 1
    18    17    16 1
    19    17    18 1
    20    20    18 1
    21    20     6 1
    22    18    19 1
    23    18    23 1
    24     7     6 1
    25     7    58 1
    26     7    62 1
    27     6     8 2
    28    23    24 1
    29    23     9 1
    30     8     9 1
    31     5    25 1
    32     5    26 1
    33     8    27 1
    34     9    28 1
    35     9    29 1
    36    12    30 1
    37    12    31 1
    38    13    32 1
    39    15    33 1
    40    15    34 1
    41    15    35 1
    42    16    36 1
    43    16    37 1
    44    17    38 1
    45    17    39 1
    46    19    40 1
    47    19    41 1
    48    19    42 1
    49    20    43 1
    50    21    44 1
    51    21    45 1
    52    22    46 1
    53    22    47 1
    54    58    48 1
    55    58    49 1
    56    58    50 1
    57    62    51 1
    58    62    52 1
    59    62    53 1
    60    23    54 1
    61    24    55 1
    62    24    56 1
    63    24    57 1
@<TRIPOS>SUBSTRUCTURE
     1 9AX         1 TEMP              0 ****  ****    0 ROOT
