@<TRIPOS>MOLECULE
9AY
   19    19     1     0     0
SMALL
bcc


@<TRIPOS>ATOM
      1 C8           0.0000     0.0000     0.0000 ca         1 9AY      -0.108000
      2 C2           2.0790     0.0000     1.1950 ca         1 9AY      -0.089300
      3 C9           1.3830     0.0000     0.0000 ca         1 9AY      -0.102000
      4 C3           1.3960     0.0130     2.3960 ca         1 9AY      -0.114000
      5 C1           3.5850    -0.0000     1.1870 c3         1 9AY       0.064200
      6 C6          -0.6930     0.0070     1.2010 ca         1 9AY       0.013600
      7 C4           0.0090     0.0130     2.4060 ca         1 9AY       0.024600
      8 N5          -0.6850     0.0190     3.6230 nv         1 9AY      -0.554200
      9 N7          -2.0920     0.0080     1.2040 nv         1 9AY      -0.553200
     10 H1          -0.5420    -0.0020    -0.9380 ha         1 9AY       0.106000
     11 H2           1.9230    -0.0080    -0.9390 ha         1 9AY       0.104000
     12 H3           1.9440     0.0150     3.3310 ha         1 9AY       0.109000
     13 H4           3.9410     0.1840     0.1800 hc         1 9AY       0.006033
     14 H5           3.9480    -0.9620     1.5280 hc         1 9AY       0.006033
     15 H6           3.9500     0.7780     1.8460 hc         1 9AY       0.006033
     16 H7          -0.9150    -0.8450     4.0710 hn         1 9AY       0.270800
     17 H8          -0.9150     0.8880     4.0620 hn         1 9AY       0.270800
     18 H9          -2.5930    -0.8580     1.1920 hn         1 9AY       0.269800
     19 H10         -2.5920     0.8750     1.1840 hn         1 9AY       0.269800
@<TRIPOS>BOND
     1     1     3 ar  
     2     1     6 ar  
     3     1    10 1   
     4     2     3 ar  
     5     2     4 ar  
     6     2     5 1   
     7     3    11 1   
     8     4     7 ar  
     9     4    12 1   
    10     5    13 1   
    11     5    14 1   
    12     5    15 1   
    13     6     7 ar  
    14     6     9 1   
    15     7     8 1   
    16     8    16 1   
    17     8    17 1   
    18     9    18 1   
    19     9    19 1   
@<TRIPOS>SUBSTRUCTURE
     1 9AY         1 TEMP              0 ****  ****    0 ROOT
