@<TRIPOS>MOLECULE
9AZ
   46    49     1     0     0
SMALL
bcc


@<TRIPOS>ATOM
      1 C1           0.0000     0.0000     0.0000 ca         1 9AZ      -0.125000
      2 C2           1.3910     0.0000     0.0000 ca         1 9AZ      -0.100000
      3 C3           2.0970     0.0000     1.1650 ca         1 9AZ      -0.139300
      4 C4           1.4210     0.0000     2.3980 ca         1 9AZ       0.382600
      5 C5           0.0020     0.0020     2.4090 ca         1 9AZ      -0.163300
      6 C6          -0.7030     0.0010     1.1870 ca         1 9AZ       0.046600
      7 N7           2.0970     0.0000     3.5480 nb         1 9AZ      -0.539000
      8 C8           1.4740     0.0010     4.7170 ca         1 9AZ       0.467100
      9 C9           0.0710     0.0020     4.7820 ca         1 9AZ      -0.235600
     10 C10         -0.6740     0.0030     3.6430 ca         1 9AZ      -0.037000
     11 C11          2.0010    -0.0000     6.1010 cc         1 9AZ      -0.261200
     12 N12          0.9660     0.0000     6.9910 n          1 9AZ       0.092000
     13 C13         -0.2980     0.0010     6.2430 c3         1 9AZ       0.107300
     14 C14          3.3040    -0.0020     6.5580 cd         1 9AZ      -0.077000
     15 C15          3.5620    -0.0040     7.9310 cd         1 9AZ       0.055800
     16 C16          2.5180    -0.0030     8.8100 cc         1 9AZ      -0.208400
     17 C17          1.2010    -0.0010     8.3200 c          1 9AZ       0.623700
     18 O18          0.2640    -0.0010     9.1010 o          1 9AZ      -0.757500
     19 C19          2.7750    -0.0050    10.2950 c3         1 9AZ       0.283600
     20 C20          4.9810    -0.0060     8.4380 c3         1 9AZ       0.111000
     21 C21          5.2750    -1.3250     9.1050 c          1 9AZ       0.991600
     22 O22          4.4390    -2.3620     8.9380 o          1 9AZ      -0.889800
     23 O23          6.2620    -1.4490     9.7900 o          1 9AZ      -0.889800
     24 O24          5.8790     0.1840     7.3430 oh         1 9AZ      -0.611800
     25 C25          5.1640     1.1280     9.4490 c3         1 9AZ      -0.042400
     26 C26          6.3090     0.7820    10.4030 c3         1 9AZ      -0.019100
     27 O27          4.0630    -0.5670    10.5540 oh         1 9AZ      -0.529800
     28 N28         -2.0950     0.0020     1.1800 nv         1 9AZ      -0.556200
     29 H1          -0.5370    -0.0000    -0.9410 ha         1 9AZ       0.102000
     30 H2           1.9220    -0.0010    -0.9440 ha         1 9AZ       0.097000
     31 H3           3.1800     0.0000     1.1410 ha         1 9AZ       0.118000
     32 H4          -1.7270    -0.2460     3.6840 ha         1 9AZ       0.113000
     33 H5          -0.8510     0.9040     6.4740 h1         1 9AZ       0.036200
     34 H6           4.1260    -0.0020     5.8520 ha         1 9AZ       0.136000
     35 H8           2.7430     1.0120    10.6680 h1         1 9AZ      -0.006300
     36 H9           2.0160    -0.5960    10.7920 h1         1 9AZ      -0.006300
     37 H11          6.2430    -0.6470     7.0870 ho         1 9AZ       0.400000
     38 H12          4.2490     1.2580    10.0140 hc         1 9AZ       0.016700
     39 H13          5.3970     2.0460     8.9230 hc         1 9AZ       0.016700
     40 H14          7.1320     0.3560     9.8400 hc         1 9AZ       0.012367
     41 H15          5.9640     0.0630    11.1360 hc         1 9AZ       0.012367
     42 H16          6.6440     1.6800    10.9070 hc         1 9AZ       0.012367
     43 H17          4.0380    -1.0470    11.3660 ho         1 9AZ       0.381000
     44 H18         -2.5960    -0.8640     1.1300 hn         1 9AZ       0.270800
     45 H19         -2.5960     0.8690     1.1860 hn         1 9AZ       0.270800
     46 H7          -0.8520    -0.9010     6.4730 h1         1 9AZ       0.036200
@<TRIPOS>BOND
     1     1     2 ar  
     2     1     6 ar  
     3     1    29 1   
     4     2     3 ar  
     5     2    30 1   
     6     3     4 ar  
     7     3    31 1   
     8     4     5 ar  
     9     4     7 ar  
    10     5     6 ar  
    11     5    10 ar  
    12     6    28 1   
    13     7     8 ar  
    14     8     9 ar  
    15     8    11 1   
    16     9    10 ar  
    17     9    13 1   
    18    10    32 1   
    19    11    12 1   
    20    11    14 2   
    21    12    13 1   
    22    12    17 1   
    23    13    33 1   
    24    13    46 1   
    25    14    15 1   
    26    14    34 1   
    27    15    16 2   
    28    15    20 1   
    29    16    17 1   
    30    16    19 1   
    31    17    18 2   
    32    19    27 1   
    33    19    35 1   
    34    19    36 1   
    35    20    21 1   
    36    20    24 1   
    37    20    25 1   
    38    21    22 1   
    39    21    23 1   
    40    24    37 1   
    41    25    26 1   
    42    25    38 1   
    43    25    39 1   
    44    26    40 1   
    45    26    41 1   
    46    26    42 1   
    47    27    43 1   
    48    28    44 1   
    49    28    45 1   
@<TRIPOS>SUBSTRUCTURE
     1 9AZ         1 TEMP              0 ****  ****    0 ROOT
