@<TRIPOS>MOLECULE
molecule
   67    72     1     0     0
SMALL
bcc


@<TRIPOS>ATOM
      1 C4           0.0000     0.0000     0.0000 cc         1 9B1      -0.137300
      2 C14          2.2890     0.0010    -1.2250 c3         1 9B1      -0.032100
      3 C5           1.3900     0.0000     0.0000 cc         1 9B1      -0.062300
      4 C6           1.9310     0.0000     1.2650 cd         1 9B1      -0.141700
      5 C8          -0.5530    -0.0090     1.2250 cd         1 9B1      -0.087400
      6 C9          -2.0730    -0.0170     1.1220 c3         1 9B1       0.012900
      7 C10          3.3860     0.0200     1.4810 c          1 9B1       0.766100
      8 C13          3.5950     0.7110    -0.8710 c3         1 9B1       0.116000
      9 C3          -1.0990     0.0010    -1.0630 c3         1 9B1      -0.003100
     10 C2          -2.3700    -0.4610    -0.3240 c3         1 9B1      -0.068000
     11 S7           0.6490    -0.0150     2.4490 ss         1 9B1       0.043200
     12 O11          3.8720    -0.1630     2.5810 o          1 9B1      -0.608500
     13 N12          4.1560     0.2530     0.3930 n          1 9B1      -0.410000
     14 C15          5.5360     0.0480     0.4860 ca         1 9B1       0.073600
     15 C16          6.3700     1.0880     0.8800 ca         1 9B1      -0.112000
     16 C17          7.7340     0.8880     0.9730 ca         1 9B1      -0.120000
     17 C18          8.2770    -0.3450     0.6750 ca         1 9B1      -0.115000
     18 C19          7.4500    -1.3950     0.2780 ca         1 9B1      -0.023800
     19 C20          6.0740    -1.1960     0.1900 ca         1 9B1      -0.066300
     20 C21          5.1730    -2.3260    -0.2380 c3         1 9B1       0.186700
     21 O22          4.7520    -3.0610     0.9130 oh         1 9B1      -0.591800
     22 C23          8.0310    -2.7210    -0.0430 cd         1 9B1      -0.142200
     23 C24          8.1510    -3.1350    -1.3880 cd         1 9B1      -0.055000
     24 C25          8.6890    -4.3610    -1.6610 cc         1 9B1       0.002800
     25 C26          9.1150    -5.1830    -0.5930 c          1 9B1       0.668700
     26 O27          9.5980    -6.2790    -0.8250 o          1 9B1      -0.635500
     27 N28          8.9880    -4.7600     0.6790 n          1 9B1      -0.314000
     28 C29          8.4590    -3.5410     0.9590 cc         1 9B1       0.026600
     29 C30          9.4330    -5.6240     1.7750 c3         1 9B1       0.083300
     30 N31          8.8180    -4.7980    -2.9850 nu         1 9B1      -0.756700
     31 C32         10.0700    -5.1010    -3.4960 ca         1 9B1       0.735200
     32 C33         11.2220    -4.8550    -2.7440 ca         1 9B1      -0.413600
     33 C34         12.4470    -5.1750    -3.2970 ca         1 9B1       0.481200
     34 N35         12.4890    -5.7020    -4.5130 nb         1 9B1      -0.780000
     35 C36         11.3840    -5.9220    -5.1970 ca         1 9B1       0.714900
     36 N37         10.1950    -5.6360    -4.7070 nb         1 9B1      -0.807000
     37 C38         -2.5300    -1.9810    -0.4080 c3         1 9B1      -0.078600
     38 H1           2.4990    -1.0190    -1.5220 hc         1 9B1       0.062200
     39 H2           1.7980     0.5280    -2.0340 hc         1 9B1       0.062200
     40 H3          -2.4940    -0.7260     1.8260 hc         1 9B1       0.057200
     41 H4          -2.4660     0.9770     1.2970 hc         1 9B1       0.057200
     42 H5           4.3150     0.5270    -1.6590 h1         1 9B1       0.049700
     43 H6           3.4060     1.7750    -0.8040 h1         1 9B1       0.049700
     44 H7          -1.2380     1.0000    -1.4580 hc         1 9B1       0.052700
     45 H8          -0.8530    -0.6940    -1.8570 hc         1 9B1       0.052700
     46 H9          -3.7600    -0.0320    -1.9070 hc         1 9B1       0.038533
     47 H10         -4.4780    -0.0410    -0.2910 hc         1 9B1       0.038533
     48 H11         -3.4720     1.3210    -0.8050 hc         1 9B1       0.038533
     49 H12          5.9490     2.0580     1.1160 ha         1 9B1       0.143000
     50 H13          8.3790     1.7020     1.2810 ha         1 9B1       0.137000
     51 H14          9.3470    -0.4960     0.7470 ha         1 9B1       0.136000
     52 H15          4.3060    -1.9240    -0.7470 h1         1 9B1       0.027700
     53 H16          5.7130    -2.9840    -0.9090 h1         1 9B1       0.027700
     54 H17          4.3280    -3.8580     0.6400 ho         1 9B1       0.401000
     55 H18          7.8180    -2.4900    -2.1920 ha         1 9B1       0.148000
     56 H19          8.3660    -3.2210     1.9900 h4         1 9B1       0.171000
     57 H20         10.5020    -5.7820     1.6990 h1         1 9B1       0.060033
     58 H21          8.9220    -6.5770     1.7140 h1         1 9B1       0.060033
     59 H22          9.2040    -5.1520     2.7230 h1         1 9B1       0.060033
     60 H23          8.0050    -4.8970    -3.5600 hn         1 9B1       0.460800
     61 H24         11.1560    -4.4230    -1.7530 ha         1 9B1       0.144000
     62 H25         13.3610    -4.9990    -2.7440 h4         1 9B1       0.025100
     63 H26         11.4550    -6.3560    -6.1870 h5         1 9B1       0.056100
     64 H27         -1.6690    -2.4600     0.0420 hc         1 9B1       0.038533
     65 H28         -3.4270    -2.2790     0.1220 hc         1 9B1       0.038533
     66 H29         -2.6080    -2.2790    -1.4470 hc         1 9B1       0.038533
     67 C1          -3.6100     0.2480    -0.8720 c3         1 9B1      -0.078600
@<TRIPOS>BOND
     1    33    34 ar
     2    33    32 ar
     3    34    35 ar
     4    32    31 ar
     5    35    36 ar
     6    36    31 ar
     7    31    30 1
     8    30    24 1
     9    24    23 2
    10    24    25 1
    11    23    22 1
    12    26    25 2
    13    25    27 1
    14    17    16 ar
    15    17    18 ar
    16    16    15 ar
    17    22    18 1
    18    22    28 2
    19    18    19 ar
    20    27    28 1
    21    27    29 1
    22    15    14 ar
    23    19    14 ar
    24    19    20 1
    25    14    13 1
    26    20    21 1
    27    13     8 1
    28    13     7 1
    29     8     2 1
    30    12     7 2
    31     7     4 1
    32     2     3 1
    33     4     3 2
    34     4    11 1
    35     3     1 1
    36    11     5 1
    37     1     5 2
    38     1     9 1
    39     5     6 1
    40     9    10 1
    41     6    10 1
    42    10    67 1
    43    10    37 1
    44     2    38 1
    45     2    39 1
    46     6    40 1
    47     6    41 1
    48     8    42 1
    49     8    43 1
    50     9    44 1
    51     9    45 1
    52    67    46 1
    53    67    47 1
    54    67    48 1
    55    15    49 1
    56    16    50 1
    57    17    51 1
    58    20    52 1
    59    20    53 1
    60    21    54 1
    61    23    55 1
    62    28    56 1
    63    29    57 1
    64    29    58 1
    65    29    59 1
    66    30    60 1
    67    32    61 1
    68    33    62 1
    69    35    63 1
    70    37    64 1
    71    37    65 1
    72    37    66 1
@<TRIPOS>SUBSTRUCTURE
     1 9B1         1 TEMP              0 ****  ****    0 ROOT
