@<TRIPOS>MOLECULE
9B1
   67    72     1     0     0
SMALL
bcc


@<TRIPOS>ATOM
      1 C4           0.0000     0.0000     0.0000 cc         1 9B1      -0.146300
      2 C14          2.2890     0.0010    -1.2250 c3         1 9B1       0.038900
      3 C5           1.3900     0.0000     0.0000 cc         1 9B1      -0.063300
      4 C6           1.9310     0.0000     1.2650 cd         1 9B1      -0.080700
      5 C8          -0.5530    -0.0090     1.2250 cd         1 9B1      -0.025400
      6 C9          -2.0730    -0.0170     1.1220 c3         1 9B1       0.087900
      7 C10          3.3860     0.0200     1.4810 c          1 9B1       0.695100
      8 C13          3.5950     0.7110    -0.8710 c3         1 9B1       0.052000
      9 C3          -1.0990     0.0010    -1.0630 c3         1 9B1       0.066900
     10 C2          -2.3700    -0.4610    -0.3240 c3         1 9B1      -0.078000
     11 S7           0.6490    -0.0150     2.4490 ss         1 9B1      -0.119800
     12 O11          3.8720    -0.1630     2.5810 o          1 9B1      -0.644500
     13 N12          4.1560     0.2530     0.3930 n          1 9B1      -0.042000
     14 C15          5.5360     0.0480     0.4860 ca         1 9B1      -0.051400
     15 C16          6.3700     1.0880     0.8800 ca         1 9B1      -0.080000
     16 C17          7.7340     0.8880     0.9730 ca         1 9B1      -0.091000
     17 C18          8.2770    -0.3450     0.6750 ca         1 9B1      -0.086000
     18 C19          7.4500    -1.3950     0.2780 ca         1 9B1      -0.014800
     19 C20          6.0740    -1.1960     0.1900 ca         1 9B1      -0.078300
     20 C21          5.1730    -2.3260    -0.2380 c3         1 9B1       0.260700
     21 O22          4.7520    -3.0610     0.9130 oh         1 9B1      -0.572800
     22 C23          8.0310    -2.7210    -0.0430 cc         1 9B1      -0.123200
     23 C24          8.1510    -3.1350    -1.3880 cc         1 9B1      -0.025000
     24 C25          8.6890    -4.3610    -1.6610 cd         1 9B1      -0.157200
     25 C26          9.1150    -5.1830    -0.5930 c          1 9B1       0.575700
     26 O27          9.5980    -6.2790    -0.8250 o          1 9B1      -0.689500
     27 N28          8.9880    -4.7600     0.6790 n          1 9B1       0.131000
     28 C29          8.4590    -3.5410     0.9590 cd         1 9B1      -0.117400
     29 C30          9.4330    -5.6240     1.7750 c3         1 9B1       0.047300
     30 N31          8.8180    -4.7980    -2.9850 nu         1 9B1      -0.281700
     31 C32         10.0700    -5.1010    -3.4960 ca         1 9B1       0.539200
     32 C33         11.2220    -4.8550    -2.7440 ca         1 9B1      -0.400600
     33 C34         12.4470    -5.1750    -3.2970 ca         1 9B1       0.480200
     34 N35         12.4890    -5.7020    -4.5130 nb         1 9B1      -0.687000
     35 C36         11.3840    -5.9220    -5.1970 ca         1 9B1       0.671900
     36 N37         10.1950    -5.6360    -4.7070 nb         1 9B1      -0.701000
     37 C38         -2.5300    -1.9810    -0.4080 c3         1 9B1       0.015400
     38 H1           2.4990    -1.0190    -1.5220 hc         1 9B1       0.029700
     39 H2           1.7980     0.5280    -2.0340 hc         1 9B1       0.029700
     40 H3          -2.4940    -0.7260     1.8260 hc         1 9B1       0.027200
     41 H4          -2.4660     0.9770     1.2970 hc         1 9B1       0.027200
     42 H5           4.3150     0.5270    -1.6590 h1         1 9B1       0.020700
     43 H6           3.4060     1.7750    -0.8040 h1         1 9B1       0.020700
     44 H7          -1.2380     1.0000    -1.4580 hc         1 9B1       0.022700
     45 H8          -0.8530    -0.6940    -1.8570 hc         1 9B1       0.022700
     46 H9          -3.7600    -0.0320    -1.9070 hc         1 9B1       0.007033
     47 H10         -4.4780    -0.0410    -0.2910 hc         1 9B1       0.007033
     48 H11         -3.4720     1.3210    -0.8050 hc         1 9B1       0.007033
     49 H12          5.9490     2.0580     1.1160 ha         1 9B1       0.113000
     50 H13          8.3790     1.7020     1.2810 ha         1 9B1       0.107000
     51 H14          9.3470    -0.4960     0.7470 ha         1 9B1       0.108000
     52 H15          4.3060    -1.9240    -0.7470 h1         1 9B1      -0.005800
     53 H16          5.7130    -2.9840    -0.9090 h1         1 9B1      -0.005800
     54 H17          4.3280    -3.8580     0.6400 ho         1 9B1       0.387000
     55 H18          7.8180    -2.4900    -2.1920 ha         1 9B1       0.117000
     56 H19          8.3660    -3.2210     1.9900 h4         1 9B1       0.143000
     57 H20         10.5020    -5.7820     1.6990 h1         1 9B1       0.028700
     58 H21          8.9220    -6.5770     1.7140 h1         1 9B1       0.028700
     59 H22          9.2040    -5.1520     2.7230 h1         1 9B1       0.028700
     60 H23          8.0050    -4.8970    -3.5600 hn         1 9B1       0.288800
     61 H24         11.1560    -4.4230    -1.7530 ha         1 9B1       0.127000
     62 H25         13.3610    -4.9990    -2.7440 h4         1 9B1      -0.022900
     63 H26         11.4550    -6.3560    -6.1870 h5         1 9B1      -0.006900
     64 H27         -1.6690    -2.4600     0.0420 hc         1 9B1       0.007033
     65 H28         -3.4270    -2.2790     0.1220 hc         1 9B1       0.007033
     66 H29         -2.6080    -2.2790    -1.4470 hc         1 9B1       0.007033
     67 C1          -3.6100     0.2480    -0.8720 c3         1 9B1       0.015400
@<TRIPOS>BOND
     1     1     3 1   
     2     1     5 2   
     3     1     9 1   
     4     2     3 1   
     5     2     8 1   
     6     2    38 1   
     7     2    39 1   
     8     3     4 2   
     9     4     7 1   
    10     4    11 1   
    11     5     6 1   
    12     5    11 1   
    13     6    10 1   
    14     6    40 1   
    15     6    41 1   
    16     7    12 2   
    17     7    13 1   
    18     8    13 1   
    19     8    42 1   
    20     8    43 1   
    21     9    10 1   
    22     9    44 1   
    23     9    45 1   
    24    10    37 1   
    25    10    67 1   
    26    13    14 1   
    27    14    15 ar  
    28    14    19 ar  
    29    15    16 ar  
    30    15    49 1   
    31    16    17 ar  
    32    16    50 1   
    33    17    18 ar  
    34    17    51 1   
    35    18    19 ar  
    36    18    22 1   
    37    19    20 1   
    38    20    21 1   
    39    20    52 1   
    40    20    53 1   
    41    21    54 1   
    42    22    23 1   
    43    22    28 2   
    44    23    24 2   
    45    23    55 1   
    46    24    25 1   
    47    24    30 1   
    48    25    26 2   
    49    25    27 1   
    50    27    28 1   
    51    27    29 1   
    52    28    56 1   
    53    29    57 1   
    54    29    58 1   
    55    29    59 1   
    56    30    31 1   
    57    30    60 1   
    58    31    32 ar  
    59    31    36 ar  
    60    32    33 ar  
    61    32    61 1   
    62    33    34 ar  
    63    33    62 1   
    64    34    35 ar  
    65    35    36 ar  
    66    35    63 1   
    67    37    64 1   
    68    37    65 1   
    69    37    66 1   
    70    46    67 1   
    71    47    67 1   
    72    48    67 1   
@<TRIPOS>SUBSTRUCTURE
     1 9B1         1 TEMP              0 ****  ****    0 ROOT
