@<TRIPOS>MOLECULE
9B2
   42    45     1     0     0
SMALL
bcc


@<TRIPOS>ATOM
      1 CAS          0.0000     0.0000     0.0000 c3         1 9B2       0.135300
      2 CAT          1.5300     0.0000     0.0000 c3         1 9B2      -0.025400
      3 CAU          2.0350     0.0000     1.4460 c3         1 9B2      -0.028400
      4 CAV          1.4710     1.2210     2.1760 c3         1 9B2      -0.025400
      5 CAW         -0.0570     1.1860     2.1130 c3         1 9B2       0.135300
      6 NAR         -0.4910     1.1880     0.7100 nh         1 9B2      -0.351000
      7 CAO         -1.8770     1.2880     0.6160 ca         1 9B2       0.047600
      8 CAP         -2.5390     2.3510     1.2250 ca         1 9B2      -0.158500
      9 CAQ         -3.9080     2.4520     1.1330 ca         1 9B2      -0.038500
     10 CAN         -2.5960     0.3290    -0.0920 ca         1 9B2      -0.158500
     11 CAM         -3.9660     0.4270    -0.1860 ca         1 9B2      -0.038500
     12 CAL         -4.6340     1.4890     0.4280 ca         1 9B2      -0.194900
     13 CAD         -6.1030     1.5950     0.3280 cc         1 9B2       0.368500
     14 NAE         -6.6970     2.6060     0.9120 nd         1 9B2      -0.545100
     15 CAF         -8.0340     2.7660     0.8610 ca         1 9B2       0.160400
     16 CAK         -8.6640     3.8460     1.4850 ca         1 9B2      -0.102000
     17 CAJ        -10.0230     3.9750     1.4120 ca         1 9B2      -0.063000
     18 CAI        -10.7920     3.0450     0.7240 ca         1 9B2      -0.132000
     19 CAH        -10.2000     1.9690     0.0990 ca         1 9B2      -0.014000
     20 CAG         -8.8150     1.8200     0.1600 ca         1 9B2      -0.220600
     21 CAB         -8.1270     0.6930    -0.4870 c          1 9B2       0.621100
     22 OAA         -8.7460    -0.1540    -1.1040 o          1 9B2      -0.668500
     23 NAC         -6.7800     0.6360    -0.3750 ns         1 9B2      -0.017400
     24 H1          -0.3590     0.0180    -1.0220 h1         1 9B2       0.019950
     25 H2          -0.3600    -0.8920     0.4990 h1         1 9B2       0.019950
     26 H3           1.8910    -0.8860    -0.5080 hc         1 9B2       0.021700
     27 H4           1.8910     0.8860    -0.5080 hc         1 9B2       0.021700
     28 H5           1.7040    -0.9030     1.9440 hc         1 9B2       0.015200
     29 H6           3.1180     0.0460     1.4500 hc         1 9B2       0.015200
     30 H7           1.7890     1.2010     3.2110 hc         1 9B2       0.021700
     31 H8           1.8310     2.1240     1.6990 hc         1 9B2       0.021700
     32 H9          -0.4580     2.0590     2.6140 h1         1 9B2       0.019950
     33 H10         -0.4170     0.2870     2.5990 h1         1 9B2       0.019950
     34 H11         -1.9760     3.0980     1.7710 ha         1 9B2       0.124000
     35 H12         -4.4230     3.2780     1.6080 ha         1 9B2       0.114500
     36 H13         -2.0770    -0.4940    -0.5680 ha         1 9B2       0.124000
     37 H14         -4.5250    -0.3210    -0.7350 ha         1 9B2       0.114500
     38 H15         -8.0780     4.5790     2.0250 ha         1 9B2       0.118000
     39 H16        -10.5070     4.8140     1.8970 ha         1 9B2       0.102000
     40 H17        -11.8680     3.1660     0.6790 ha         1 9B2       0.107000
     41 H18        -10.8040     1.2470    -0.4370 ha         1 9B2       0.124000
     42 H19         -6.2760    -0.1120    -0.8080 hn         1 9B2       0.189500
@<TRIPOS>BOND
     1     1     2 1   
     2     1     6 1   
     3     1    24 1   
     4     1    25 1   
     5     2     3 1   
     6     2    26 1   
     7     2    27 1   
     8     3     4 1   
     9     3    28 1   
    10     3    29 1   
    11     4     5 1   
    12     4    30 1   
    13     4    31 1   
    14     5     6 1   
    15     5    32 1   
    16     5    33 1   
    17     6     7 1   
    18     7     8 ar  
    19     7    10 ar  
    20     8     9 ar  
    21     8    34 1   
    22     9    12 ar  
    23     9    35 1   
    24    10    11 ar  
    25    10    36 1   
    26    11    12 ar  
    27    11    37 1   
    28    12    13 1   
    29    13    14 2   
    30    13    23 1   
    31    14    15 1   
    32    15    16 ar  
    33    15    20 ar  
    34    16    17 ar  
    35    16    38 1   
    36    17    18 ar  
    37    17    39 1   
    38    18    19 ar  
    39    18    40 1   
    40    19    20 ar  
    41    19    41 1   
    42    20    21 1   
    43    21    22 2   
    44    21    23 1   
    45    23    42 1   
@<TRIPOS>SUBSTRUCTURE
     1 9B2         1 TEMP              0 ****  ****    0 ROOT
