@<TRIPOS>MOLECULE
molecule
   42    45     1     0     0
SMALL
bcc


@<TRIPOS>ATOM
      1 CAS          0.0000     0.0000     0.0000 c3         1 9B2       0.164800
      2 CAT          1.5300     0.0000     0.0000 c3         1 9B2      -0.081400
      3 CAU          2.0350     0.0000     1.4460 c3         1 9B2      -0.084400
      4 CAV          1.4710     1.2210     2.1760 c3         1 9B2      -0.081400
      5 CAW         -0.0570     1.1860     2.1130 c3         1 9B2       0.164800
      6 NAR         -0.4910     1.1880     0.7100 nh         1 9B2      -0.593000
      7 CAO         -1.8770     1.2880     0.6160 ca         1 9B2       0.134600
      8 CAP         -2.5390     2.3510     1.2250 ca         1 9B2      -0.179500
      9 CAQ         -3.9080     2.4520     1.1330 ca         1 9B2      -0.062500
     10 CAN         -2.5960     0.3290    -0.0920 ca         1 9B2      -0.179500
     11 CAM         -3.9660     0.4270    -0.1860 ca         1 9B2      -0.062500
     12 CAL         -4.6340     1.4890     0.4280 ca         1 9B2      -0.184900
     13 CAD         -6.1030     1.5950     0.3280 cc         1 9B2       0.565500
     14 NAE         -6.6970     2.6060     0.9120 nd         1 9B2      -0.656100
     15 CAF         -8.0340     2.7660     0.8610 ca         1 9B2       0.204400
     16 CAK         -8.6640     3.8460     1.4850 ca         1 9B2      -0.125000
     17 CAJ        -10.0230     3.9750     1.4120 ca         1 9B2      -0.091000
     18 CAI        -10.7920     3.0450     0.7240 ca         1 9B2      -0.159000
     19 CAH        -10.2000     1.9690     0.0990 ca         1 9B2      -0.050000
     20 CAG         -8.8150     1.8200     0.1600 ca         1 9B2      -0.212600
     21 CAB         -8.1270     0.6930    -0.4870 c          1 9B2       0.709100
     22 OAA         -8.7460    -0.1540    -1.1040 o          1 9B2      -0.627500
     23 NAC         -6.7800     0.6360    -0.3750 ns         1 9B2      -0.472400
     24 H1          -0.3590     0.0180    -1.0220 h1         1 9B2       0.043950
     25 H2          -0.3600    -0.8920     0.4990 h1         1 9B2       0.043950
     26 H3           1.8910    -0.8860    -0.5080 hc         1 9B2       0.052950
     27 H4           1.8910     0.8860    -0.5080 hc         1 9B2       0.052950
     28 H5           1.7040    -0.9030     1.9440 hc         1 9B2       0.043700
     29 H6           3.1180     0.0460     1.4500 hc         1 9B2       0.043700
     30 H7           1.7890     1.2010     3.2110 hc         1 9B2       0.052950
     31 H8           1.8310     2.1240     1.6990 hc         1 9B2       0.052950
     32 H9          -0.4580     2.0590     2.6140 h1         1 9B2       0.043950
     33 H10         -0.4170     0.2870     2.5990 h1         1 9B2       0.043950
     34 H11         -1.9760     3.0980     1.7710 ha         1 9B2       0.144500
     35 H12         -4.4230     3.2780     1.6080 ha         1 9B2       0.144000
     36 H13         -2.0770    -0.4940    -0.5680 ha         1 9B2       0.144500
     37 H14         -4.5250    -0.3210    -0.7350 ha         1 9B2       0.144000
     38 H15         -8.0780     4.5790     2.0250 ha         1 9B2       0.147000
     39 H16        -10.5070     4.8140     1.8970 ha         1 9B2       0.133000
     40 H17        -11.8680     3.1660     0.6790 ha         1 9B2       0.135000
     41 H18        -10.8040     1.2470    -0.4370 ha         1 9B2       0.154000
     42 H19         -6.2760    -0.1120    -0.8080 hn         1 9B2       0.338500
@<TRIPOS>BOND
     1    18    19 ar
     2    18    17 ar
     3    19    20 ar
     4    17    16 ar
     5    22    21 2
     6    20    21 1
     7    20    15 ar
     8    21    23 1
     9    16    15 ar
    10    15    14 1
    11    23    13 1
    12    14    13 2
    13    13    12 1
    14    12     9 ar
    15    12    11 ar
    16     9     8 ar
    17    11    10 ar
    18     8     7 ar
    19    10     7 ar
    20     7     6 1
    21     6     1 1
    22     6     5 1
    23     1     2 1
    24     5     4 1
    25     2     3 1
    26     4     3 1
    27     1    24 1
    28     1    25 1
    29     2    26 1
    30     2    27 1
    31     3    28 1
    32     3    29 1
    33     4    30 1
    34     4    31 1
    35     5    32 1
    36     5    33 1
    37     8    34 1
    38     9    35 1
    39    10    36 1
    40    11    37 1
    41    16    38 1
    42    17    39 1
    43    18    40 1
    44    19    41 1
    45    23    42 1
@<TRIPOS>SUBSTRUCTURE
     1 9B2         1 TEMP              0 ****  ****    0 ROOT
