@<TRIPOS>MOLECULE
9B3
   25    25     1     0     0
SMALL
bcc


@<TRIPOS>ATOM
      1 C1           0.0000     0.0000     0.0000 ca         1 9B3       0.013000
      2 C2           1.3840     0.0000     0.0000 ca         1 9B3      -0.206900
      3 Cl1          2.2650    -0.0010    -1.4960 cl         1 9B3      -0.053400
      4 C3           2.0610     0.0000     1.2160 ca         1 9B3       0.486200
      5 N1           3.4520     0.0000     1.2320 nv         1 9B3      -0.592500
      6 N2           1.3910     0.0010     2.3590 nb         1 9B3      -0.650000
      7 C4           0.0720     0.0010     2.3890 ca         1 9B3       0.415200
      8 C5          -0.6630     0.0060     1.2200 ca         1 9B3      -0.206600
      9 C6          -2.1680     0.0070     1.2680 c3         1 9B3       0.060900
     10 C7          -2.6780     1.4500     1.2900 c3         1 9B3      -0.158700
     11 C8          -2.3190     2.1280    -0.0080 c          1 9B3       0.977600
     12 O1          -2.6670     3.4080    -0.2140 o          1 9B3      -0.874300
     13 O2          -1.7190     1.5200    -0.8620 o          1 9B3      -0.874300
     14 C9          -4.1980     1.4520     1.4640 c3         1 9B3       0.221700
     15 SE1         -4.8310     3.2960     1.6520 sh         1 9B3      -0.433900
     16 H1          -0.5540     0.0040    -0.9310 ha         1 9B3       0.186000
     17 H2           3.9590    -0.5440     0.5630 hn         1 9B3       0.264800
     18 H3           3.9440     0.5680     1.8920 hn         1 9B3       0.264800
     19 H4          -0.4410     0.0040     3.3430 h4         1 9B3      -0.029900
     20 H5          -2.5580    -0.5000     0.3940 hc         1 9B3       0.005200
     21 H6          -2.5010    -0.5070     2.1620 hc         1 9B3       0.005200
     22 H7          -2.2190     1.9820     2.1140 hc         1 9B3       0.042700
     23 H9          -4.6620     0.9970     0.5970 h1         1 9B3       0.002700
     24 H10         -4.4600     0.8880     2.3510 h1         1 9B3       0.002700
     25 H11         -6.2400     3.2920     1.9680 hs         1 9B3       0.134800
@<TRIPOS>BOND
     1     1     2 ar  
     2     1     8 ar  
     3     1    16 1   
     4     2     3 1   
     5     2     4 ar  
     6     4     5 1   
     7     4     6 ar  
     8     5    17 1   
     9     5    18 1   
    10     6     7 ar  
    11     7     8 ar  
    12     7    19 1   
    13     8     9 1   
    14     9    10 1   
    15     9    20 1   
    16     9    21 1   
    17    10    11 1   
    18    10    14 1   
    19    10    22 1   
    20    11    12 1   
    21    11    13 1   
    22    14    15 1   
    23    14    23 1   
    24    14    24 1   
    25    15    25 1   
@<TRIPOS>SUBSTRUCTURE
     1 9B3         1 TEMP              0 ****  ****    0 ROOT
