@<TRIPOS>MOLECULE
molecule
   25    25     1     0     0
SMALL
bcc


@<TRIPOS>ATOM
      1 C1           0.0000     0.0000     0.0000 ca         1 9B3       0.002000
      2 C2           1.3840     0.0000     0.0000 ca         1 9B3      -0.150900
      3 Cl1          2.2650    -0.0010    -1.4960 cl         1 9B3      -0.137400
      4 C3           2.0610     0.0000     1.2160 ca         1 9B3       0.678200
      5 N1           3.4520     0.0000     1.2320 nv         1 9B3      -1.044500
      6 N2           1.3910     0.0010     2.3590 nb         1 9B3      -0.757000
      7 C4           0.0720     0.0010     2.3890 ca         1 9B3       0.433200
      8 C5          -0.6630     0.0060     1.2200 ca         1 9B3      -0.207600
      9 C6          -2.1680     0.0070     1.2680 c3         1 9B3      -0.005100
     10 C7          -2.6780     1.4500     1.2900 c3         1 9B3      -0.172700
     11 C8          -2.3190     2.1280    -0.0080 c          1 9B3       0.893600
     12 O1          -2.6670     3.4080    -0.2140 o          1 9B3      -0.830300
     13 O2          -1.7190     1.5200    -0.8620 o          1 9B3      -0.830300
     14 C9          -4.1980     1.4520     1.4640 c3         1 9B3       0.131700
     15 SE1         -4.8310     3.2960     1.6520 sh         1 9B3      -0.433900
     16 H1          -0.5540     0.0040    -0.9310 ha         1 9B3       0.210000
     17 H2           3.9590    -0.5440     0.5630 hn         1 9B3       0.429300
     18 H3           3.9440     0.5680     1.8920 hn         1 9B3       0.429300
     19 H4          -0.4410     0.0040     3.3430 h4         1 9B3       0.012100
     20 H5          -2.5580    -0.5000     0.3940 hc         1 9B3       0.033200
     21 H6          -2.5010    -0.5070     2.1620 hc         1 9B3       0.033200
     22 H7          -2.2190     1.9820     2.1140 hc         1 9B3       0.061700
     23 H9          -4.6620     0.9970     0.5970 h1         1 9B3       0.031700
     24 H10         -4.4600     0.8880     2.3510 h1         1 9B3       0.031700
     25 H11         -6.2400     3.2920     1.9680 hs         1 9B3       0.160800
@<TRIPOS>BOND
     1     6     7 ar
     2     6     4 ar
     3     7     8 ar
     4     5     4 1
     5     4     2 ar
     6     8     9 1
     7     8     1 ar
     8     9    10 1
     9     2     1 ar
    10     2     3 1
    11    10    14 1
    12    10    11 1
    13    14    15 1
    14    11    13 1
    15    11    12 1
    16     1    16 1
    17     5    17 1
    18     5    18 1
    19     7    19 1
    20     9    20 1
    21     9    21 1
    22    10    22 1
    23    14    23 1
    24    14    24 1
    25    15    25 1
@<TRIPOS>SUBSTRUCTURE
     1 9B3         1 TEMP              0 ****  ****    0 ROOT
