@<TRIPOS>MOLECULE
molecule
   71    70     1     0     0
SMALL
bcc


@<TRIPOS>ATOM
      1 C01          0.0000     0.0000     0.0000 c3         1 9B4      -0.113600
      2 C02          1.5300     0.0000     0.0000 c3         1 9B4       0.143600
      3 C03          2.0400     0.0000     1.4430 c3         1 9B4       0.148400
      4 C05          1.8820     1.1950     3.5150 c3         1 9B4       0.147900
      5 C06          1.2140     2.4050     4.1700 c3         1 9B4      -0.042000
      6 C07          1.6570     2.5030     5.6310 c3         1 9B4       0.147900
      7 C09          1.3820     3.8170     7.6160 c3         1 9B4       0.148400
      8 C10          0.6600     5.0500     8.1660 c3         1 9B4       0.143600
      9 C13         -2.9490     5.1860     9.0940 c3         1 9B4       0.149600
     10 C15         -3.4480     5.5190     7.6860 c3         1 9B4      -0.101600
     11 C16          0.9790     6.2610     7.2880 c3         1 9B4      -0.113600
     12 C17          1.6240     3.6790     3.4260 c3         1 9B4       0.150400
     13 C23         -0.3060     2.2450     4.1070 c3         1 9B4       0.148400
     14 C25         -2.0950     0.8100     4.8030 c3         1 9B4       0.151400
     15 C26         -2.3870    -0.4810     5.5710 c3         1 9B4       0.146100
     16 C27         -3.9010    -0.6790     5.6800 c3         1 9B4      -0.127100
     17 C35          2.7080     2.2970    -2.6910 c3         1 9B4       0.149600
     18 C37          1.7420     3.4320    -2.3470 c3         1 9B4      -0.101600
     19 O04          1.4690     1.1040     2.1490 os         1 9B4      -0.421600
     20 O08          1.0340     3.6340     6.2440 os         1 9B4      -0.421600
     21 O11         -0.7510     4.8170     8.1610 os         1 9B4      -0.398600
     22 O14         -3.1560     3.7970     9.3570 oh         1 9B4      -0.592300
     23 O18          3.0440     3.8290     3.4840 oh         1 9B4      -0.615800
     24 O24         -0.6880     1.0550     4.8020 os         1 9B4      -0.425600
     25 O28         -1.8110    -1.5890     4.8750 oh         1 9B4      -0.599800
     26 O33          2.0060     1.1680    -0.6730 os         1 9B4      -0.398600
     27 O36          4.0020     2.5980    -2.1660 oh         1 9B4      -0.592300
     28 H013        -0.3610     1.0210    -0.0060 hc         1 9B4       0.043700
     29 H012        -0.3610    -0.5050     0.8880 hc         1 9B4       0.043700
     30 H011        -0.3610    -0.5160    -0.8810 hc         1 9B4       0.043700
     31 H021         1.8910    -0.8840    -0.5110 h1         1 9B4       0.036700
     32 H032         3.1190     0.0890     1.4440 h1         1 9B4       0.032450
     33 H031         1.7530    -0.9260     1.9270 h1         1 9B4       0.032450
     34 H051         2.9590     1.3080     3.5590 h1         1 9B4       0.038950
     35 H052         1.5920     0.2940     4.0410 h1         1 9B4       0.038950
     36 H072         1.3670     1.6020     6.1570 h1         1 9B4       0.038950
     37 H071         2.7330     2.6170     5.6750 h1         1 9B4       0.038950
     38 H092         2.4520     3.9570     7.7020 h1         1 9B4       0.032450
     39 H091         1.0850     2.9430     8.1830 h1         1 9B4       0.032450
     40 H101         0.9920     5.2400     9.1800 h1         1 9B4       0.036700
     41 H121        -1.0830     5.1910    10.1610 h1         1 9B4       0.025200
     42 H122        -1.3090     6.5750     9.0820 h1         1 9B4       0.025200
     43 H131        -3.4950     5.7760     9.8200 h1         1 9B4       0.030200
     44 H151        -3.0510     6.4790     7.3790 hc         1 9B4       0.045200
     45 H153        -4.5310     5.5600     7.6870 hc         1 9B4       0.045200
     46 H152        -3.1170     4.7530     6.9950 hc         1 9B4       0.045200
     47 H162         0.2160     6.3660     6.5270 hc         1 9B4       0.043700
     48 H161         1.0050     7.1540     7.9010 hc         1 9B4       0.043700
     49 H163         1.9440     6.1200     6.8160 hc         1 9B4       0.043700
     50 H172         1.3100     3.6090     2.3920 h1         1 9B4       0.037200
     51 H171         1.1510     4.5360     3.8900 h1         1 9B4       0.037200
     52 H231        -0.7790     3.1020     4.5710 h1         1 9B4       0.040200
     53 H232        -0.6190     2.1750     3.0720 h1         1 9B4       0.040200
     54 H251        -2.6060     1.6380     5.2810 h1         1 9B4       0.034200
     55 H252        -2.4460     0.7100     3.7830 h1         1 9B4       0.034200
     56 H261        -1.9590    -0.4160     6.5640 h1         1 9B4       0.043700
     57 H273        -4.3190    -0.8230     4.6910 hc         1 9B4       0.042700
     58 H271        -4.3470     0.1970     6.1360 hc         1 9B4       0.042700
     59 H272        -4.1080    -1.5490     6.2910 hc         1 9B4       0.042700
     60 H351         2.7710     2.1900    -3.7670 h1         1 9B4       0.030200
     61 H371         1.9150     3.7570    -1.3280 hc         1 9B4       0.045200
     62 H373         1.9030     4.2620    -3.0240 hc         1 9B4       0.045200
     63 H372         0.7220     3.0800    -2.4450 hc         1 9B4       0.045200
     64 H141        -3.7590     3.6990    10.0750 ho         1 9B4       0.393500
     65 H1           3.2930     4.6300     3.0540 ho         1 9B4       0.403000
     66 H2          -1.8410    -2.3540     5.4240 ho         1 9B4       0.397000
     67 H361         4.5970     2.7700    -2.8770 ho         1 9B4       0.393500
     68 C34          2.2000     0.9910    -2.0770 c3         1 9B4       0.129400
     69 C12         -1.4570     5.5070     9.1940 c3         1 9B4       0.129400
     70 H341         2.9280     0.2060    -2.2450 h1         1 9B4       0.025200
     71 H342         1.2600     0.7160    -2.5400 h1         1 9B4       0.025200
@<TRIPOS>BOND
     1    18    17 1
     2    68    17 1
     3    68    26 1
     4    17    27 1
     5     1     2 1
     6    26     2 1
     7     2     3 1
     8     3    19 1
     9    19     4 1
    10     7    20 1
    11     7     8 1
    12    11     8 1
    13     4     5 1
    14    20     6 1
    15     8    21 1
    16     6     5 1
    17     5    12 1
    18     5    13 1
    19    12    23 1
    20    21    69 1
    21    13    24 1
    22    69     9 1
    23    24    14 1
    24     9    22 1
    25     9    10 1
    26    14    15 1
    27    15    16 1
    28    15    25 1
    29     1    28 1
    30     1    29 1
    31     1    30 1
    32     2    31 1
    33     3    32 1
    34     3    33 1
    35     4    34 1
    36     4    35 1
    37     6    36 1
    38     6    37 1
    39     7    38 1
    40     7    39 1
    41     8    40 1
    42    69    41 1
    43    69    42 1
    44     9    43 1
    45    10    44 1
    46    10    45 1
    47    10    46 1
    48    11    47 1
    49    11    48 1
    50    11    49 1
    51    12    50 1
    52    12    51 1
    53    13    52 1
    54    13    53 1
    55    14    54 1
    56    14    55 1
    57    15    56 1
    58    16    57 1
    59    16    58 1
    60    16    59 1
    61    68    70 1
    62    68    71 1
    63    17    60 1
    64    18    61 1
    65    18    62 1
    66    18    63 1
    67    22    64 1
    68    23    65 1
    69    25    66 1
    70    27    67 1
@<TRIPOS>SUBSTRUCTURE
     1 9B4         1 TEMP              0 ****  ****    0 ROOT
