@<TRIPOS>MOLECULE
molecule
   56    58     1     0     0
SMALL
bcc


@<TRIPOS>ATOM
      1 CAA          0.0000     0.0000     0.0000 c3         1 9B5      -0.169100
      2 CAT          1.5070     0.0000     0.0000 c          1 9B5       0.659100
      3 OAD          2.1130     0.0000     1.0500 o          1 9B5      -0.621100
      4 N            2.1810    -0.0010    -1.1670 ns         1 9B5      -0.571900
      5 CA           3.6460    -0.0000    -1.1670 c3         1 9B5       0.049700
      6 CB           4.1560    -1.4360    -1.0410 c3         1 9B5      -0.110100
      7 C            4.1480     0.6010    -2.4550 c          1 9B5       0.687100
      8 O            3.3600     0.9900    -3.2890 o          1 9B5      -0.595100
      9 NBD          5.4730     0.7040    -2.6780 n          1 9B5      -0.470800
     10 CAO          6.5370     0.2740    -1.7520 c3         1 9B5       0.086000
     11 CBA          7.7690     1.1280    -2.1380 c3         1 9B5       0.128100
     12 OAG          7.6930     2.4300    -1.5540 oh         1 9B5      -0.588800
     13 CAN          7.6260     1.2020    -3.6820 c3         1 9B5      -0.104400
     14 CBC          6.0970     1.2620    -3.8860 c3         1 9B5       0.050700
     15 CAU          5.7090     0.4470    -5.0940 c          1 9B5       0.646100
     16 OAE          4.9710    -0.5070    -4.9700 o          1 9B5      -0.586100
     17 NAQ          6.1840     0.7800    -6.3110 ns         1 9B5      -0.587900
     18 CAM          5.8070    -0.0120    -7.4850 c3         1 9B5       0.161300
     19 CAW          6.4660     0.5630    -8.7110 ca         1 9B5      -0.115300
     20 CAI          7.7160     0.1150    -9.0960 ca         1 9B5      -0.112500
     21 CAK          8.3250     0.6370   -10.2180 ca         1 9B5      -0.116500
     22 CAH          5.8150     1.5350    -9.4510 ca         1 9B5      -0.112500
     23 CAJ          6.4130     2.0660   -10.5760 ca         1 9B5      -0.116500
     24 CAY          7.6760     1.6210   -10.9660 ca         1 9B5       0.003000
     25 CAZ          8.3230     2.1870   -12.1700 cc         1 9B5      -0.104400
     26 SAS          9.0820     1.2680   -13.4680 ss         1 9B5      -0.199300
     27 CAL          9.4740     2.7210   -14.2800 cd         1 9B5       0.441300
     28 NAP          9.0570     3.7400   -13.6050 nc         1 9B5      -0.675000
     29 CAX          8.4320     3.4980   -12.4730 cc         1 9B5       0.382600
     30 CAB          7.8930     4.5910   -11.5870 c3         1 9B5      -0.116400
     31 H1          -0.3610     0.0800     1.0180 hc         1 9B5       0.061367
     32 H2          -0.3610    -0.9220    -0.4400 hc         1 9B5       0.061367
     33 H3          -0.3610     0.8420    -0.5780 hc         1 9B5       0.061367
     34 H4           1.6810    -0.0490    -2.0330 hn         1 9B5       0.336500
     35 H5           4.0060     0.5860    -0.3300 h1         1 9B5       0.093700
     36 H6           3.3200    -2.1040    -0.8740 hc         1 9B5       0.049700
     37 H7           4.6670    -1.7190    -1.9530 hc         1 9B5       0.049700
     38 H8           4.8440    -1.5030    -0.2060 hc         1 9B5       0.049700
     39 H9           6.7520    -0.7790    -1.8910 h1         1 9B5       0.061700
     40 H10          6.2470     0.4740    -0.7280 h1         1 9B5       0.061700
     41 H11          8.6870     0.6250    -1.8620 h1         1 9B5       0.050700
     42 H12          8.4850     2.6040    -1.0720 ho         1 9B5       0.406000
     43 H13          8.0380     0.3140    -4.1460 hc         1 9B5       0.067200
     44 H14          8.0970     2.0990    -4.0660 hc         1 9B5       0.067200
     45 H15          5.7860     2.2920    -4.0160 h1         1 9B5       0.086700
     46 H16          6.7490     1.5980    -6.4210 hn         1 9B5       0.315500
     47 H17          6.1300    -1.0370    -7.3480 h1         1 9B5       0.061700
     48 H18          4.7310     0.0140    -7.6070 h1         1 9B5       0.061700
     49 H19          8.2190    -0.6490    -8.5150 ha         1 9B5       0.139000
     50 H20          9.3060     0.2860   -10.5170 ha         1 9B5       0.140500
     51 H21          4.8330     1.8790    -9.1470 ha         1 9B5       0.139000
     52 H22          5.9030     2.8280   -11.1540 ha         1 9B5       0.140500
     53 H23          9.9990     2.7790   -15.2250 h5         1 9B5       0.062100
     54 H24          8.1480     4.3790   -10.5560 hc         1 9B5       0.052367
     55 H25          6.8150     4.6400   -11.6890 hc         1 9B5       0.052367
     56 H26          8.3270     5.5390   -11.8790 hc         1 9B5       0.052367
@<TRIPOS>BOND
     1    28    27 2
     2    28    29 1
     3    27    26 1
     4    30    29 1
     5    29    25 2
     6    26    25 1
     7    25    24 1
     8    24    21 ar
     9    24    23 ar
    10    21    20 ar
    11    23    22 ar
    12    20    19 ar
    13    22    19 ar
    14    19    18 1
    15    18    17 1
    16    17    15 1
    17    13    14 1
    18    13    11 1
    19    15    16 2
    20    15    14 1
    21    14     9 1
    22    11    12 1
    23    11    10 1
    24     9    10 1
    25     9     7 1
    26     8     7 2
    27     7     5 1
    28     5     6 1
    29     5     4 1
    30     4     2 1
    31     3     2 2
    32     2     1 1
    33     1    31 1
    34     1    32 1
    35     1    33 1
    36     4    34 1
    37     5    35 1
    38     6    36 1
    39     6    37 1
    40     6    38 1
    41    10    39 1
    42    10    40 1
    43    11    41 1
    44    12    42 1
    45    13    43 1
    46    13    44 1
    47    14    45 1
    48    17    46 1
    49    18    47 1
    50    18    48 1
    51    20    49 1
    52    21    50 1
    53    22    51 1
    54    23    52 1
    55    27    53 1
    56    30    54 1
    57    30    55 1
    58    30    56 1
@<TRIPOS>SUBSTRUCTURE
     1 9B5         1 TEMP              0 ****  ****    0 ROOT
