@<TRIPOS>MOLECULE
9B6
   50    54     1     0     0
SMALL
bcc


@<TRIPOS>ATOM
      1 C01         0.0420   -0.3430   -0.1700 c3        1 9B6      0.120700
      2 O05         1.4580   -0.2250   -0.0200 os        1 9B6     -0.436100
      3 C06         1.9600   -0.0570    1.2510 ca        1 9B6      0.659600
      4 N07         1.1650   -0.1220    2.3210 nb        1 9B6     -0.733000
      5 C08         1.7460    0.0580    3.5520 ca        1 9B6      0.350300
      6 C09         0.9750   -0.0140    4.7510 ca        1 9B6     -0.018700
      7 N10        -0.3760   -0.3290    4.9900 n         1 9B6     -0.246200
      8 C11        -1.4320   -0.2750    4.0560 ca        1 9B6      0.066600
      9 C12        -2.1350   -1.4600    3.7500 ca        1 9B6     -0.078000
     10 C14        -3.1990   -1.4460    2.8530 ca        1 9B6     -0.137000
     11 C16        -3.5960   -0.2590    2.2400 ca        1 9B6     -0.096000
     12 C18        -2.9290    0.9280    2.5240 ca        1 9B6     -0.165000
     13 C20        -1.8590    0.9230    3.4260 ca        1 9B6      0.119100
     14 O21        -1.2280    2.1000    3.8200 os        1 9B6     -0.366900
     15 C22        -0.9910    3.1020    2.8660 c3        1 9B6      0.824700
     16 F23        -2.0980    3.8680    2.6920 f         1 9B6     -0.213300
     17 F24        -0.0070    3.8660    3.4010 f         1 9B6     -0.213300
     18 F25        -0.5900    2.6280    1.6610 f         1 9B6     -0.213300
     19 C26        -0.5960   -0.2070    6.4170 c         1 9B6      0.777500
     20 O27        -1.6670   -0.3810    7.0110 o         1 9B6     -0.592500
     21 N28         0.6770    0.0150    7.0410 n         1 9B6     -0.404100
     22 C30         1.6160    0.2040    6.0090 ca        1 9B6     -0.144700
     23 C31         3.0080    0.4830    6.0520 ca        1 9B6      0.427200
     24 N33         3.7450    0.5420    4.9540 nb        1 9B6     -0.641000
     25 C34         3.1510    0.3330    3.7310 ca        1 9B6      0.265300
     26 C35         3.9550    0.3840    2.5420 ca        1 9B6     -0.103300
     27 C37         3.3910    0.1890    1.3030 ca        1 9B6     -0.109300
     28 C38         4.1890    0.2440    0.1060 cc        1 9B6     -0.278600
     29 C39         4.4360   -0.8430   -0.8550 cc        1 9B6      0.356600
     30 C40         3.8840   -2.2070   -0.7530 c3        1 9B6     -0.137400
     31 N44         5.2490   -0.3810   -1.8250 nd        1 9B6     -0.367300
     32 O45         5.5440    0.8830   -1.5850 os        1 9B6     -0.118100
     33 C46         4.9110    1.3160   -0.3980 cd        1 9B6      0.291000
     34 C47         5.1350    2.7040    0.0000 c3        1 9B6     -0.143400
     35 H011       -0.4720    0.5630    0.2350 h1        1 9B6      0.054367
     36 H012       -0.3300   -1.2670    0.3330 h1        1 9B6      0.054367
     37 H013       -0.0840   -0.4120   -1.2810 h1        1 9B6      0.054367
     38 H12        -1.8400   -2.4070    4.2320 ha        1 9B6      0.158000
     39 H14        -3.7310   -2.3840    2.6320 ha        1 9B6      0.145000
     40 H16        -4.4410   -0.2550    1.5360 ha        1 9B6      0.144000
     41 H18        -3.2360    1.8720    2.0480 ha        1 9B6      0.154000
     42 H28         0.7320    0.5060    7.9010 hn        1 9B6      0.341500
     43 H31         3.5250    0.6560    7.0120 h4        1 9B6      0.036100
     44 H35         5.0370    0.5820    2.6370 ha        1 9B6      0.165000
     45 H401        4.0620   -2.7990   -1.6840 hc        1 9B6      0.062033
     46 H402        2.7810   -2.1420   -0.5690 hc        1 9B6      0.062033
     47 H403        4.3620   -2.7400    0.1070 hc        1 9B6      0.062033
     48 H471        6.1620    3.0380   -0.2940 hc        1 9B6      0.068700
     49 H472        5.0170    2.8050    1.1080 hc        1 9B6      0.068700
     50 H473        4.3890    3.3690   -0.5050 hc        1 9B6      0.068700
@<TRIPOS>BOND
     1    1    2 1
     2    1   35 1
     3    1   36 1
     4    1   37 1
     5    2    3 1
     6    3    4 ar
     7    3   27 ar
     8    4    5 ar
     9    5    6 ar
    10    5   25 ar
    11    6    7 1
    12    6   22 ar
    13    7    8 1
    14    7   19 1
    15    8    9 ar
    16    8   13 ar
    17    9   10 ar
    18    9   38 1
    19   10   11 ar
    20   10   39 1
    21   11   12 ar
    22   11   40 1
    23   12   13 ar
    24   12   41 1
    25   13   14 1
    26   14   15 1
    27   15   16 1
    28   15   17 1
    29   15   18 1
    30   19   20 2
    31   19   21 1
    32   21   22 1
    33   21   42 1
    34   22   23 ar
    35   23   24 ar
    36   23   43 1
    37   24   25 ar
    38   25   26 ar
    39   26   27 ar
    40   26   44 1
    41   27   28 1
    42   28   29 1
    43   28   33 2
    44   29   30 1
    45   29   31 2
    46   30   45 1
    47   30   46 1
    48   30   47 1
    49   31   32 1
    50   32   33 1
    51   33   34 1
    52   34   48 1
    53   34   49 1
    54   34   50 1
@<TRIPOS>SUBSTRUCTURE
     1 9B6         1 TEMP              0 ****  ****    0 ROOT
