@<TRIPOS>MOLECULE
molecule
   70    73     1     0     0
SMALL
bcc


@<TRIPOS>ATOM
      1 CAO          0.0000     0.0000     0.0000 cy         1 9B8       0.125400
      2 OAV          1.4330     0.0000     0.0000 oq         1 9B8      -0.389600
      3 CAP          1.3920     0.0000     1.4320 cy         1 9B8       0.125400
      4 CBF          0.0400     0.7230     1.3520 cy         1 9B8      -0.238700
      5 CAY          0.1380     2.2240     1.2570 c          1 9B8       0.686100
      6 OAF          1.2240     2.7620     1.2490 o          1 9B8      -0.602100
      7 NAU         -0.9840     2.9680     1.1810 ns         1 9B8      -0.566900
      8 CBH         -0.8900     4.4270     1.0890 c3         1 9B8       0.060700
      9 CBJ         -0.6960     4.8340    -0.3740 c3         1 9B8      -0.071000
     10 CAD         -0.7070     6.3600    -0.4840 c3         1 9B8      -0.089433
     11 CAB          0.6450     4.2960    -0.8790 c3         1 9B8      -0.089433
     12 CAC         -1.8310     4.2530    -1.2190 c3         1 9B8      -0.089433
     13 CAZ         -2.1570     5.0470     1.6190 c          1 9B8       0.691100
     14 OAG         -3.2110     4.4560     1.5140 o          1 9B8      -0.601100
     15 N           -2.1190     6.2580     2.2100 n          1 9B8      -0.469800
     16 CD2         -0.9010     7.0410     2.4850 c3         1 9B8       0.080000
     17 CG          -1.2860     7.9740     3.6600 c3         1 9B8       0.128100
     18 OD1         -1.2080     7.2840     4.9090 oh         1 9B8      -0.589800
     19 CB          -2.7570     8.3250     3.3090 c3         1 9B8      -0.105400
     20 CA          -3.2850     7.0180     2.6810 c3         1 9B8       0.049700
     21 C           -4.1970     7.3390     1.5240 c          1 9B8       0.646100
     22 O           -3.9150     6.9620     0.4060 o          1 9B8      -0.590100
     23 NAT         -5.3260     8.0450     1.7320 ns         1 9B8      -0.586900
     24 CAN         -6.2140     8.3560     0.6090 c3         1 9B8       0.160300
     25 CBA         -7.3960     9.1480     1.1060 ca         1 9B8      -0.115300
     26 CAI         -7.3340    10.5290     1.1420 ca         1 9B8      -0.112000
     27 CAK         -8.4130    11.2600     1.5950 ca         1 9B8      -0.116500
     28 CAJ         -8.5400     8.4890     1.5200 ca         1 9B8      -0.112000
     29 CAL         -9.6260     9.2080     1.9750 ca         1 9B8      -0.116500
     30 CBC         -9.5680    10.6010     2.0190 ca         1 9B8       0.004000
     31 CBD        -10.7290    11.3780     2.5080 cc         1 9B8      -0.105400
     32 SAW        -11.4350    12.7900     1.7260 ss         1 9B8      -0.198300
     33 CAM        -12.5990    12.9090     2.9730 cd         1 9B8       0.440300
     34 NAS        -12.4240    11.9700     3.8430 nc         1 9B8      -0.675000
     35 CBB        -11.4380    11.1270     3.6290 cc         1 9B8       0.382600
     36 CAA        -11.1220     9.9860     4.5600 c3         1 9B8      -0.117400
     37 H1          -0.4210    -0.9960     0.0680 h1         1 9B8       0.065450
     38 H2          -0.4210     0.6100    -0.7910 h1         1 9B8       0.065450
     39 H3           2.1700     0.6100     1.8760 h1         1 9B8       0.065450
     40 H4           1.3120    -0.9960     1.8510 h1         1 9B8       0.065450
     41 H5          -0.6890     0.3490     2.0600 hc         1 9B8       0.072700
     42 H6          -1.8810     2.5280     1.2360 hn         1 9B8       0.335500
     43 H7          -0.0460     4.7720     1.6740 h1         1 9B8       0.082700
     44 H8          -0.5860     6.6480    -1.5210 hc         1 9B8       0.043144
     45 H9          -1.6500     6.7420    -0.1110 hc         1 9B8       0.043144
     46 H10          0.1060     6.7710     0.1020 hc         1 9B8       0.043144
     47 H11          0.8950     4.7750    -1.8180 hc         1 9B8       0.043144
     48 H12          1.4170     4.5060    -0.1490 hc         1 9B8       0.043144
     49 H13          0.5710     3.2250    -1.0290 hc         1 9B8       0.043144
     50 H14         -2.6020     5.0020    -1.3520 hc         1 9B8       0.043144
     51 H15         -1.4450     3.9560    -2.1870 hc         1 9B8       0.043144
     52 H16         -2.2500     3.3890    -0.7170 hc         1 9B8       0.043144
     53 H17         -0.0900     6.3850     2.7760 h1         1 9B8       0.066200
     54 H18         -0.6260     7.6270     1.6150 h1         1 9B8       0.066200
     55 H19         -0.6690     8.8640     3.6620 h1         1 9B8       0.050700
     56 H20         -0.6730     7.7780     5.5080 ho         1 9B8       0.406000
     57 H21         -3.3140     8.5700     4.2050 hc         1 9B8       0.066700
     58 H22         -2.7940     9.1360     2.5920 hc         1 9B8       0.066700
     59 H23         -3.8190     6.4430     3.4280 h1         1 9B8       0.086700
     60 H24         -5.5730     8.3320     2.6590 hn         1 9B8       0.315500
     61 H25         -6.5610     7.4350     0.1560 h1         1 9B8       0.061700
     62 H26         -5.6730     8.9390    -0.1280 h1         1 9B8       0.061700
     63 H27         -6.4370    11.0380     0.8120 ha         1 9B8       0.139000
     64 H28         -8.3630    12.3410     1.6240 ha         1 9B8       0.140500
     65 H29         -8.5830     7.4070     1.4850 ha         1 9B8       0.139000
     66 H30        -10.5200     8.6910     2.3010 ha         1 9B8       0.140500
     67 H31        -13.3730    13.6660     3.0280 h5         1 9B8       0.062100
     68 H32        -10.0510     9.9330     4.7160 hc         1 9B8       0.052700
     69 H33        -11.6180    10.1460     5.5100 hc         1 9B8       0.052700
     70 H34        -11.4690     9.0570     4.1240 hc         1 9B8       0.052700
@<TRIPOS>BOND
     1    34    33 2
     2    34    35 1
     3    33    32 1
     4    36    35 1
     5    35    31 2
     6    32    31 1
     7    31    30 1
     8    30    27 ar
     9    30    29 ar
    10    27    26 ar
    11    29    28 ar
    12    26    25 ar
    13    28    25 ar
    14    25    24 1
    15    24    23 1
    16    23    21 1
    17    21    22 2
    18    21    20 1
    19    19    20 1
    20    19    17 1
    21    20    15 1
    22    17    18 1
    23    17    16 1
    24    15    16 1
    25    15    13 1
    26    14    13 2
    27    13     8 1
    28    10     9 1
    29     8     9 1
    30     8     7 1
    31    11     9 1
    32     9    12 1
    33     7     5 1
    34     5     6 2
    35     5     4 1
    36     3     4 1
    37     3     2 1
    38     4     1 1
    39     2     1 1
    40     1    37 1
    41     1    38 1
    42     3    39 1
    43     3    40 1
    44     4    41 1
    45     7    42 1
    46     8    43 1
    47    10    44 1
    48    10    45 1
    49    10    46 1
    50    11    47 1
    51    11    48 1
    52    11    49 1
    53    12    50 1
    54    12    51 1
    55    12    52 1
    56    16    53 1
    57    16    54 1
    58    17    55 1
    59    18    56 1
    60    19    57 1
    61    19    58 1
    62    20    59 1
    63    23    60 1
    64    24    61 1
    65    24    62 1
    66    26    63 1
    67    27    64 1
    68    28    65 1
    69    29    66 1
    70    33    67 1
    71    36    68 1
    72    36    69 1
    73    36    70 1
@<TRIPOS>SUBSTRUCTURE
     1 9B8         1 TEMP              0 ****  ****    0 ROOT
