@<TRIPOS>MOLECULE
9B8
   70    73     1     0     0
SMALL
bcc


@<TRIPOS>ATOM
      1 CAO          0.0000     0.0000     0.0000 cy         1 9B8       0.215400
      2 OAV          1.4330     0.0000     0.0000 oq         1 9B8      -0.391600
      3 CAP          1.3920     0.0000     1.4320 cy         1 9B8       0.215400
      4 CBF          0.0400     0.7230     1.3520 cy         1 9B8      -0.229700
      5 CAY          0.1380     2.2240     1.2570 c          1 9B8       0.602100
      6 OAF          1.2240     2.7620     1.2490 o          1 9B8      -0.644100
      7 NAU         -0.9840     2.9680     1.1810 ns         1 9B8      -0.170900
      8 CBH         -0.8900     4.4270     1.0890 c3         1 9B8      -0.049300
      9 CBJ         -0.6960     4.8340    -0.3740 c3         1 9B8      -0.064000
     10 CAD         -0.7070     6.3600    -0.4840 c3         1 9B8      -0.021433
     11 CAB          0.6450     4.2960    -0.8790 c3         1 9B8      -0.021433
     12 CAC         -1.8310     4.2530    -1.2190 c3         1 9B8      -0.021433
     13 CAZ         -2.1570     5.0470     1.6190 c          1 9B8       0.616100
     14 OAG         -3.2110     4.4560     1.5140 o          1 9B8      -0.643100
     15 N           -2.1190     6.2580     2.2100 n          1 9B8      -0.116800
     16 CD2         -0.9010     7.0410     2.4850 c3         1 9B8       0.005000
     17 CG          -1.2860     7.9740     3.6600 c3         1 9B8       0.182100
     18 OD1         -1.2080     7.2840     4.9090 oh         1 9B8      -0.572800
     19 CB          -2.7570     8.3250     3.3090 c3         1 9B8      -0.052400
     20 CA          -3.2850     7.0180     2.6810 c3         1 9B8      -0.032300
     21 C           -4.1970     7.3390     1.5240 c          1 9B8       0.561100
     22 O           -3.9150     6.9620     0.4060 o          1 9B8      -0.631100
     23 NAT         -5.3260     8.0450     1.7320 ns         1 9B8      -0.194900
     24 CAN         -6.2140     8.3560     0.6090 c3         1 9B8       0.111300
     25 CBA         -7.3960     9.1480     1.1060 ca         1 9B8      -0.124300
     26 CAI         -7.3340    10.5290     1.1420 ca         1 9B8      -0.082000
     27 CAK         -8.4130    11.2600     1.5950 ca         1 9B8      -0.092500
     28 CAJ         -8.5400     8.4890     1.5200 ca         1 9B8      -0.082000
     29 CAL         -9.6260     9.2080     1.9750 ca         1 9B8      -0.092500
     30 CBC         -9.5680    10.6010     2.0190 ca         1 9B8       0.014000
     31 CBD        -10.7290    11.3780     2.5080 cc         1 9B8      -0.056400
     32 SAW        -11.4350    12.7900     1.7260 ss         1 9B8      -0.302300
     33 CAM        -12.5990    12.9090     2.9730 cc         1 9B8       0.464300
     34 NAS        -12.4240    11.9700     3.8430 nd         1 9B8      -0.551000
     35 CBB        -11.4380    11.1270     3.6290 cd         1 9B8       0.330600
     36 CAA        -11.1220     9.9860     4.5600 c3         1 9B8      -0.020400
     37 H1          -0.4210    -0.9960     0.0680 h1         1 9B8       0.021200
     38 H2          -0.4210     0.6100    -0.7910 h1         1 9B8       0.021200
     39 H3           2.1700     0.6100     1.8760 h1         1 9B8       0.021200
     40 H4           1.3120    -0.9960     1.8510 h1         1 9B8       0.021200
     41 H5          -0.6890     0.3490     2.0600 hc         1 9B8       0.047700
     42 H6          -1.8810     2.5280     1.2360 hn         1 9B8       0.198500
     43 H7          -0.0460     4.7720     1.6740 h1         1 9B8       0.063700
     44 H8          -0.5860     6.6480    -1.5210 hc         1 9B8       0.017589
     45 H9          -1.6500     6.7420    -0.1110 hc         1 9B8       0.017589
     46 H10          0.1060     6.7710     0.1020 hc         1 9B8       0.017589
     47 H11          0.8950     4.7750    -1.8180 hc         1 9B8       0.017589
     48 H12          1.4170     4.5060    -0.1490 hc         1 9B8       0.017589
     49 H13          0.5710     3.2250    -1.0290 hc         1 9B8       0.017589
     50 H14         -2.6020     5.0020    -1.3520 hc         1 9B8       0.017589
     51 H15         -1.4450     3.9560    -2.1870 hc         1 9B8       0.017589
     52 H16         -2.2500     3.3890    -0.7170 hc         1 9B8       0.017589
     53 H17         -0.0900     6.3850     2.7760 h1         1 9B8       0.042700
     54 H18         -0.6260     7.6270     1.6150 h1         1 9B8       0.042700
     55 H19         -0.6690     8.8640     3.6620 h1         1 9B8       0.013700
     56 H20         -0.6730     7.7780     5.5080 ho         1 9B8       0.394000
     57 H21         -3.3140     8.5700     4.2050 hc         1 9B8       0.034700
     58 H22         -2.7940     9.1360     2.5920 hc         1 9B8       0.034700
     59 H23         -3.8190     6.4430     3.4280 h1         1 9B8       0.054700
     60 H24         -5.5730     8.3320     2.6590 hn         1 9B8       0.176500
     61 H25         -6.5610     7.4350     0.1560 h1         1 9B8       0.032200
     62 H26         -5.6730     8.9390    -0.1280 h1         1 9B8       0.032200
     63 H27         -6.4370    11.0380     0.8120 ha         1 9B8       0.111500
     64 H28         -8.3630    12.3410     1.6240 ha         1 9B8       0.117000
     65 H29         -8.5830     7.4070     1.4850 ha         1 9B8       0.111500
     66 H30        -10.5200     8.6910     2.3010 ha         1 9B8       0.117000
     67 H31        -13.3730    13.6660     3.0280 h5         1 9B8       0.026100
     68 H32        -10.0510     9.9330     4.7160 hc         1 9B8       0.016033
     69 H33        -11.6180    10.1460     5.5100 hc         1 9B8       0.016033
     70 H34        -11.4690     9.0570     4.1240 hc         1 9B8       0.016033
@<TRIPOS>BOND
     1     1     2 1   
     2     1     4 1   
     3     1    37 1   
     4     1    38 1   
     5     2     3 1   
     6     3     4 1   
     7     3    39 1   
     8     3    40 1   
     9     4     5 1   
    10     4    41 1   
    11     5     6 2   
    12     5     7 1   
    13     7     8 1   
    14     7    42 1   
    15     8     9 1   
    16     8    13 1   
    17     8    43 1   
    18     9    10 1   
    19     9    11 1   
    20     9    12 1   
    21    10    44 1   
    22    10    45 1   
    23    10    46 1   
    24    11    47 1   
    25    11    48 1   
    26    11    49 1   
    27    12    50 1   
    28    12    51 1   
    29    12    52 1   
    30    13    14 2   
    31    13    15 1   
    32    15    16 1   
    33    15    20 1   
    34    16    17 1   
    35    16    53 1   
    36    16    54 1   
    37    17    18 1   
    38    17    19 1   
    39    17    55 1   
    40    18    56 1   
    41    19    20 1   
    42    19    57 1   
    43    19    58 1   
    44    20    21 1   
    45    20    59 1   
    46    21    22 2   
    47    21    23 1   
    48    23    24 1   
    49    23    60 1   
    50    24    25 1   
    51    24    61 1   
    52    24    62 1   
    53    25    26 ar  
    54    25    28 ar  
    55    26    27 ar  
    56    26    63 1   
    57    27    30 ar  
    58    27    64 1   
    59    28    29 ar  
    60    28    65 1   
    61    29    30 ar  
    62    29    66 1   
    63    30    31 1   
    64    31    32 1   
    65    31    35 2   
    66    32    33 1   
    67    33    34 2   
    68    33    67 1   
    69    34    35 1   
    70    35    36 1   
    71    36    68 1   
    72    36    69 1   
    73    36    70 1   
@<TRIPOS>SUBSTRUCTURE
     1 9B8         1 TEMP              0 ****  ****    0 ROOT
