@<TRIPOS>MOLECULE
molecule
   46    49     1     0     0
SMALL
bcc


@<TRIPOS>ATOM
      1 C1           0.0000     0.0000     0.0000 c3         1 9BD       0.129700
      2 C2           2.0110     0.0000     1.3050 c3         1 9BD       0.122400
      3 C6           7.4790     0.8840     0.9790 ca         1 9BD       0.420600
      4 C9           5.7220     2.7190     2.1360 ca         1 9BD       0.142100
      5 C12          9.9870     3.5250     1.9380 ca         1 9BD      -0.575300
      6 C15         10.2160     1.3790     0.8410 ca         1 9BD      -0.458600
      7 C18         13.5590     5.5810     2.0910 cc         1 9BD       0.336200
      8 O1           1.4300     0.0000     0.0000 os         1 9BD      -0.418600
      9 C3           3.5360     0.0000     1.1840 c3         1 9BD       0.109400
     10 O2           3.9650     1.2220     0.5790 os         1 9BD      -0.308900
     11 C4           5.2430     1.5160     1.6060 ca         1 9BD       0.047100
     12 C5           6.1050     0.6070     1.0340 ca         1 9BD      -0.136300
     13 C7           7.9570     2.1020     1.5160 ca         1 9BD      -0.147300
     14 C8           7.0690     3.0110     2.0930 ca         1 9BD      -0.173000
     15 C10          5.6500     5.0820     2.3910 c3         1 9BD       0.121700
     16 C11          9.3950     2.3650     1.4460 ca         1 9BD       0.165000
     17 C13         11.3590     3.6710     1.8180 ca         1 9BD       0.742800
     18 N1          12.1090     2.7350     1.2470 nb         1 9BD      -1.001000
     19 C14         11.6020     1.6140     0.7640 ca         1 9BD       0.815200
     20 C16          9.6180     0.2100     0.3370 ca         1 9BD       0.505200
     21 N2           8.3310     0.0080     0.4180 nb         1 9BD      -0.732000
     22 N3          12.4320     0.6730     0.1810 nv         1 9BD      -1.002500
     23 N4          11.7560     4.3750     1.8580 na         1 9BD       0.057300
     24 C17         13.1250     4.3410     1.7970 cd         1 9BD      -0.270600
     25 N5          12.4890     6.3550     2.3260 nc         1 9BD      -0.628000
     26 C19         11.4020     5.6460     2.1900 cd         1 9BD       0.342400
     27 H1          -0.3610    -0.9000     0.4840 h1         1 9BD       0.027700
     28 H1A         -0.3610     0.8690     0.5370 h1         1 9BD       0.027700
     29 H1B         -0.3610     0.0310    -1.0210 h1         1 9BD       0.027700
     30 H2           1.6910    -0.8850     1.8430 h1         1 9BD       0.028200
     31 H2A          1.6910     0.8840     1.8430 h1         1 9BD       0.028200
     32 H12          9.3880     4.2970     2.4060 ha         1 9BD       0.142000
     33 H18         14.5940     5.8990     2.1310 h4         1 9BD       0.060100
     34 H3           3.9770    -0.0880     2.1700 h1         1 9BD       0.048200
     35 H3A          3.8500    -0.8360     0.5720 h1         1 9BD       0.048200
     36 H5           5.7230    -0.3210     0.6270 ha         1 9BD       0.168000
     37 H8           7.4370     3.9430     2.5040 ha         1 9BD       0.153000
     38 H10          6.6810     5.1980     2.0800 h1         1 9BD       0.040700
     39 H10A         5.1280     6.0230     2.2670 h1         1 9BD       0.040700
     40 H10B         5.6180     4.7860     3.4330 h1         1 9BD       0.040700
     41 H16         10.2410    -0.5410    -0.1340 h4         1 9BD       0.006100
     42 HN3         12.1360    -0.2800     0.1110 hn         1 9BD       0.444300
     43 HN3A        13.3490     0.9360    -0.1240 hn         1 9BD       0.444300
     44 H17         13.7400     3.4810     1.5580 h4         1 9BD       0.244000
     45 H19         10.4140     5.9690     2.4920 h5         1 9BD       0.099100
     46 O3           5.1100     3.8910     1.8160 os         1 9BD      -0.322900
@<TRIPOS>BOND
     1     1     8 1
     2     2     8 1
     3     2     9 1
     4     3    12 ar
     5     3    13 ar
     6     3    21 ar
     7     4    11 ar
     8     4    14 ar
     9     4    46 1
    10     5    16 ar
    11     5    17 ar
    12     6    16 ar
    13     6    19 ar
    14     6    20 ar
    15     7    24 2
    16     7    25 1
    17     9    10 1
    18    10    11 1
    19    11    12 ar
    20    13    14 ar
    21    13    16 ar
    22    46    15 1
    23    17    18 ar
    24    17    23 1
    25    18    19 ar
    26    19    22 1
    27    20    21 ar
    28    23    24 1
    29    23    26 1
    30    25    26 2
    31     1    27 1
    32     1    28 1
    33     1    29 1
    34     2    30 1
    35     2    31 1
    36     5    32 1
    37     7    33 1
    38     9    34 1
    39     9    35 1
    40    12    36 1
    41    14    37 1
    42    15    38 1
    43    15    39 1
    44    15    40 1
    45    20    41 1
    46    22    42 1
    47    22    43 1
    48    24    44 1
    49    26    45 1
@<TRIPOS>SUBSTRUCTURE
     1 9BD         1 TEMP              0 ****  ****    0 ROOT
