@<TRIPOS>MOLECULE
9BD
   47    46     1     0     0
SMALL
bcc


@<TRIPOS>ATOM
      1 C1          2.1180   -1.1380    0.1420 c3        1 9BD     -0.088000
      2 C2          2.8970    0.5690    3.3760 c1        1 9BD     -0.224750
      3 C6          6.8800    1.4480    0.0140 c2        1 9BD      0.196000
      4 C9          5.2590    3.4080    1.3910 c3        1 9BD      0.016000
      5 C12         9.6160    3.4870    1.6410 c2        1 9BD     -0.183000
      6 C15         9.6590    1.5570    0.1660 c2        1 9BD     -0.250000
      7 C18        15.0700    4.1860    3.1800 c1        1 9BD     -0.224750
      8 O1          2.8770   -0.3890   -0.7900 oh        1 9BD     -0.382000
      9 C3          2.5890   -0.5200    3.7650 c1        1 9BD     -0.224750
     10 O2          3.3290    2.2110    0.6250 oh        1 9BD     -0.192000
     11 C4          4.6670    2.2490    0.6190 c2        1 9BD      0.220000
     12 C5          5.4630    1.3520   -0.0660 c2        1 9BD     -0.376000
     13 C7          7.4850    2.4740    0.8030 c2        1 9BD     -0.236000
     14 C8          6.7200    3.3860    1.5310 c1        1 9BD     -0.096000
     15 C10         4.8890    4.6170    3.4060 c3        1 9BD     -0.077000
     16 C11         8.9210    2.5300    0.8890 c2        1 9BD      0.151000
     17 C13        11.0360    3.4580    1.6590 c2        1 9BD      0.198000
     18 N1         11.7730    2.5100    0.9590 n2        1 9BD     -0.204000
     19 C14        11.0720    1.6140    0.2520 c2        1 9BD      0.060000
     20 C16         9.0170    0.5370   -0.6240 c1        1 9BD     -0.108000
     21 N2          7.6860    0.5200   -0.6670 n3        1 9BD     -0.132000
     22 N3         11.8150    0.5820   -0.5100 n4        1 9BD     -0.028000
     23 N4         11.7700    4.4020    2.3770 nh        1 9BD     -0.212000
     24 C17        15.1210    4.9130    2.2310 c1        1 9BD     -0.224750
     25 N5         10.6330    6.1460    3.8060 n1        1 9BD      0.016000
     26 C19        11.1430    5.3300    3.1450 c1        1 9BD     -0.051000
     27 H1          2.5300   -0.5830   -1.6690 ho        1 9BD      0.217000
     28 H1A         2.3000   -2.2320    0.0010 h1        1 9BD      0.086333
     29 H1B         2.4820   -0.8090    1.1510 h1        1 9BD      0.086333
     30 H2          1.0280   -0.9140    0.0350 h1        1 9BD      0.086333
     31 H2A         3.1690    1.5430    3.0410 ha        1 9BD      0.227750
     32 H12         9.0360    4.2400    2.2080 ha        1 9BD      0.216000
     33 H18        15.0490    3.5510    4.0320 ha        1 9BD      0.227750
     34 H3          2.9980    1.4410    0.1150 ho        1 9BD      0.274000
     35 H3A         2.3130   -1.4800    4.1230 ha        1 9BD      0.227750
     36 H5          4.9870    0.5380   -0.6420 ha        1 9BD      0.181000
     37 H8          5.0260    4.3560    0.7980 h1        1 9BD      0.163000
     38 H10         5.9910    4.6990    3.5710 h1        1 9BD      0.095000
     39 H10A        4.3460    4.4460    4.3700 h1        1 9BD      0.095000
     40 H10B        4.5020    5.5290    2.8880 h1        1 9BD      0.095000
     41 H16         7.2310   -0.1920   -1.2070 hn        1 9BD      0.275000
     42 HN3        11.1000   -0.0140   -0.9840 hn        1 9BD      0.275000
     43 HN3A       12.3840    0.0140    0.1250 hn        1 9BD      0.275000
     44 H17        15.1900    5.5670    1.3970 ha        1 9BD      0.227750
     45 H19        12.7740    4.3660    2.4150 hn        1 9BD      0.296000
     46 H33        12.4230    1.0250   -1.2060 hn        1 9BD      0.275000
     47 O3          4.5780    3.4550    2.6430 os        1 9BD     -0.245000
@<TRIPOS>BOND
     1    1    8 1   
     2    1   28 1   
     3    1   29 1   
     4    1   30 1   
     5    2    9 1   
     6    2   31 1   
     7    3   12 1   
     8    3   13 1   
     9    3   21 1   
    10    4   11 1   
    11    4   14 1   
    12    4   37 1   
    13    4   47 1   
    14    5   16 1   
    15    5   17 1   
    16    5   32 1   
    17    6   16 1   
    18    6   19 1   
    19    6   20 1   
    20    7   24 1   
    21    7   33 1   
    22    8   27 1   
    23    9   35 1   
    24   10   11 1   
    25   10   34 1   
    26   11   12 1   
    27   12   36 1   
    28   13   14 1   
    29   13   16 1   
    30   15   38 1   
    31   15   39 1   
    32   15   40 1   
    33   15   47 1   
    34   17   18 1   
    35   17   23 1   
    36   18   19 1   
    37   19   22 1   
    38   20   21 1   
    39   21   41 1   
    40   22   42 1   
    41   22   43 1   
    42   22   46 1   
    43   23   26 1   
    44   23   45 1   
    45   24   44 1   
    46   25   26 1   
@<TRIPOS>SUBSTRUCTURE
     1 9BD         1 TEMP              0 ****  ****    0 ROOT
