@<TRIPOS>MOLECULE
9BE
   19    19     1     0     0
SMALL
bcc


@<TRIPOS>ATOM
      1 S01          0.0000     0.0000     0.0000 s          1 9BE      -0.561400
      2 C02          1.5990     0.0000     0.0000 cs         1 9BE       0.251200
      3 N03          2.2720     0.0000     1.1670 ns         1 9BE      -0.012900
      4 C04          1.5400     0.0010     2.4360 c3         1 9BE       0.063300
      5 C05          2.5200     0.0010     3.5820 ca         1 9BE      -0.136300
      6 C06          2.9730    -1.1960     4.1040 ca         1 9BE      -0.083000
      7 C07          3.8700    -1.1960     5.1550 ca         1 9BE      -0.099000
      8 C08          4.3150     0.0010     5.6830 ca         1 9BE      -0.087000
      9 C09          3.8630     1.1980     5.1610 ca         1 9BE      -0.099000
     10 C10          2.9690     1.1980     4.1060 ca         1 9BE      -0.083000
     11 H2           2.1400    -0.0140    -0.9380 h5         1 9BE       0.032200
     12 H3           0.9180    -0.8840     2.4940 h1         1 9BE       0.056700
     13 H4           0.9180     0.8850     2.4930 h1         1 9BE       0.056700
     14 H5           2.6240    -2.1340     3.6890 ha         1 9BE       0.109000
     15 H6           4.2250    -2.1340     5.5640 ha         1 9BE       0.107000
     16 H7           5.0170     0.0010     6.5090 ha         1 9BE       0.105000
     17 H8           4.2130     2.1370     5.5740 ha         1 9BE       0.107000
     18 H9           2.6140     2.1360     3.6970 ha         1 9BE       0.109000
     19 H1           3.2730     0.0000     1.1670 hn         1 9BE       0.163500
@<TRIPOS>BOND
     1     1     2 2   
     2     2     3 1   
     3     2    11 1   
     4     3     4 1   
     5     3    19 1   
     6     4     5 1   
     7     4    12 1   
     8     4    13 1   
     9     5     6 ar  
    10     5    10 ar  
    11     6     7 ar  
    12     6    14 1   
    13     7     8 ar  
    14     7    15 1   
    15     8     9 ar  
    16     8    16 1   
    17     9    10 ar  
    18     9    17 1   
    19    10    18 1   
@<TRIPOS>SUBSTRUCTURE
     1 9BE         1 TEMP              0 ****  ****    0 ROOT
