@<TRIPOS>MOLECULE
molecule
   27    28     1     0     0
SMALL
bcc


@<TRIPOS>ATOM
      1 CAM          0.0000     0.0000     0.0000 c3         1 9BF      -0.196100
      2 CAK          1.5060     0.0000     0.0000 c          1 9BF       0.558100
      3 OAL          2.1110     0.0000     1.0460 o          1 9BF      -0.528100
      4 CAJ          2.2600     0.0030    -1.3050 c3         1 9BF      -0.180400
      5 CAI          3.7650     0.0040    -1.0260 c3         1 9BF       0.006800
      6 CAG          4.5180     0.0060    -2.3300 cc         1 9BF      -0.157400
      7 CAE          4.8640     1.1800    -3.1350 ca         1 9BF      -0.099800
      8 CAF          4.6450     2.5510    -2.9940 ca         1 9BF      -0.079000
      9 CAA          5.1080     3.4140    -3.9470 ca         1 9BF      -0.158000
     10 CAB          5.7960     2.9380    -5.0550 ca         1 9BF      -0.108000
     11 CAC          6.0240     1.5890    -5.2140 ca         1 9BF      -0.144000
     12 CAD          5.5600     0.6930    -4.2560 ca         1 9BF      -0.038200
     13 NAH          5.6260    -0.6770    -4.1280 na         1 9BF      -0.183400
     14 CAN          5.0050    -1.0670    -2.9730 cd         1 9BF      -0.098100
     15 H1          -0.3610     0.8880    -0.5040 hc         1 9BF       0.060033
     16 H2          -0.3610    -0.8810    -0.5170 hc         1 9BF       0.060033
     17 H3          -0.3610    -0.0070     1.0210 hc         1 9BF       0.060033
     18 H4           1.9980     0.8890    -1.8720 hc         1 9BF       0.067700
     19 H5           1.9990    -0.8800    -1.8750 hc         1 9BF       0.067700
     20 H6           4.0260     0.8880    -0.4560 hc         1 9BF       0.058700
     21 H7           4.0270    -0.8810    -0.4580 hc         1 9BF       0.058700
     22 H8           4.1090     2.9300    -2.1320 ha         1 9BF       0.130000
     23 H9           4.9370     4.4780    -3.8370 ha         1 9BF       0.128000
     24 H10          6.1570     3.6350    -5.8020 ha         1 9BF       0.129000
     25 H11          6.5610     1.2260    -6.0820 ha         1 9BF       0.125000
     26 H12          6.0670    -1.2950    -4.7800 hn         1 9BF       0.295700
     27 H13          4.9190    -2.0900    -2.6290 h4         1 9BF       0.165000
@<TRIPOS>BOND
     1     3     2 2
     2     4     2 1
     3     4     5 1
     4     2     1 1
     5     5     6 1
     6    14     6 2
     7    14    13 1
     8     6     7 1
     9     7     8 ar
    10     7    12 ar
    11    13    12 1
    12     8     9 ar
    13    12    11 ar
    14     9    10 ar
    15    11    10 ar
    16     1    15 1
    17     1    16 1
    18     1    17 1
    19     4    18 1
    20     4    19 1
    21     5    20 1
    22     5    21 1
    23     8    22 1
    24     9    23 1
    25    10    24 1
    26    11    25 1
    27    13    26 1
    28    14    27 1
@<TRIPOS>SUBSTRUCTURE
     1 9BF         1 TEMP              0 ****  ****    0 ROOT
