@<TRIPOS>MOLECULE
9BH
   72    75     1     0     0
SMALL
bcc


@<TRIPOS>ATOM
      1 CAO          0.0000     0.0000     0.0000 cy         1 9BH      -0.028400
      2 CAN          1.5380     0.0000     0.0000 cy         1 9BH      -0.047400
      3 CAP          1.4600     0.0000     1.5350 cy         1 9BH      -0.028400
      4 CBF          0.0780     0.6590     1.3870 cy         1 9BH      -0.153700
      5 CAX          0.1310     2.1650     1.3380 c          1 9BH       0.595100
      6 OAE          1.1960     2.7380     1.4140 o          1 9BH      -0.658100
      7 NAV         -1.0090     2.8740     1.2100 ns         1 9BH      -0.169900
      8 CBH         -0.9590     4.3380     1.1620 c3         1 9BH      -0.049300
      9 CBJ         -0.6860     4.7920    -0.2740 c3         1 9BH      -0.063000
     10 CAD         -0.7430     6.3190    -0.3440 c3         1 9BH      -0.022100
     11 CAB          0.7010     4.3110    -0.7060 c3         1 9BH      -0.022100
     12 CAC         -1.7450     4.1990    -1.2060 c3         1 9BH      -0.022100
     13 CAZ         -2.2770     4.9010     1.6260 c          1 9BH       0.616100
     14 OAG         -3.3020     4.2790     1.4380 o          1 9BH      -0.643100
     15 N           -2.3180     6.0950     2.2500 n          1 9BH      -0.116800
     16 CD2         -1.1470     6.9080     2.6240 c3         1 9BH       0.005000
     17 CG          -1.6390     7.7930     3.7970 c3         1 9BH       0.182100
     18 OD1         -1.6170     7.0710     5.0300 oh         1 9BH      -0.572800
     19 CB          -3.0950     8.1070     3.3620 c3         1 9BH      -0.052400
     20 CA          -3.5380     6.8030     2.6650 c3         1 9BH      -0.032300
     21 C           -4.3840     7.1270     1.4620 c          1 9BH       0.561100
     22 O           -4.0190     6.7920     0.3550 o          1 9BH      -0.631100
     23 NAU         -5.5480     7.7900     1.6160 ns         1 9BH      -0.195900
     24 CAQ         -6.3710     8.1050     0.4460 c3         1 9BH       0.111300
     25 CBA         -7.6090     8.8440     0.8860 ca         1 9BH      -0.124300
     26 CAI         -7.5970    10.2250     0.9630 ca         1 9BH      -0.082000
     27 CAK         -8.7260    10.9070     1.3650 ca         1 9BH      -0.092500
     28 CAJ         -8.7550     8.1370     1.2080 ca         1 9BH      -0.082000
     29 CAL         -9.8910     8.8060     1.6110 ca         1 9BH      -0.092500
     30 CBC         -9.8840    10.2000     1.6960 ca         1 9BH       0.014000
     31 CBD        -11.0980    10.9240     2.1280 cc         1 9BH      -0.055400
     32 SAW        -11.7980    12.3380     1.3440 ss         1 9BH      -0.303300
     33 CAM        -13.0450    12.3810     2.5130 cc         1 9BH       0.464300
     34 NAT        -12.8970    11.4210     3.3630 nd         1 9BH      -0.550000
     35 CBB        -11.8720    10.6160     3.1910 cd         1 9BH       0.330600
     36 CAA        -11.5810     9.4550     4.1070 c3         1 9BH      -0.020400
     37 H1          -0.4240    -0.9970     0.0270 hc         1 9BH       0.030450
     38 H2          -0.4240     0.6510    -0.7550 hc         1 9BH       0.030450
     39 H3           1.9620    -0.9120    -0.4030 hc         1 9BH       0.030200
     40 H4           1.9620     0.9120    -0.4030 hc         1 9BH       0.030200
     41 H5           2.1920     0.6510     1.9970 hc         1 9BH       0.030450
     42 H6           1.4110    -0.9970     1.9570 hc         1 9BH       0.030450
     43 H7          -0.6520     0.2610     2.0810 hc         1 9BH       0.039700
     44 H8          -1.8920     2.4030     1.1960 hn         1 9BH       0.199500
     45 H9          -0.1660     4.6930     1.8100 h1         1 9BH       0.063700
     46 H10         -0.5630     6.6410    -1.3630 hc         1 9BH       0.017478
     47 H11         -1.7200     6.6600    -0.0260 hc         1 9BH       0.017478
     48 H12          0.0160     6.7390     0.3050 hc         1 9BH       0.017478
     49 H13          1.4070     4.4750     0.1000 hc         1 9BH       0.017478
     50 H14          1.0180     4.8650    -1.5820 hc         1 9BH       0.017478
     51 H15          0.6600     3.2550    -0.9420 hc         1 9BH       0.017478
     52 H16         -1.4900     4.4260    -2.2340 hc         1 9BH       0.017478
     53 H17         -2.7130     4.6260    -0.9710 hc         1 9BH       0.017478
     54 H18         -1.7830     3.1240    -1.0720 hc         1 9BH       0.017478
     55 H19         -0.8380     7.5270     1.7900 h1         1 9BH       0.043200
     56 H20         -0.3350     6.2700     2.9500 h1         1 9BH       0.043200
     57 H21         -1.0540     8.7030     3.8630 h1         1 9BH       0.013700
     58 H22         -1.1470     7.5690     5.6780 ho         1 9BH       0.394000
     59 H23         -3.7170     8.3060     4.2270 hc         1 9BH       0.034700
     60 H24         -3.1150     8.9370     2.6670 hc         1 9BH       0.034700
     61 H25         -4.0980     6.1890     3.3590 h1         1 9BH       0.055700
     62 H26         -5.8660     8.0360     2.5320 hn         1 9BH       0.176500
     63 H27         -6.6560     7.1870    -0.0530 h1         1 9BH       0.032200
     64 H28         -5.8040     8.7260    -0.2380 h1         1 9BH       0.032200
     65 H29         -6.6980    10.7730     0.7050 ha         1 9BH       0.111500
     66 H30         -8.7150    11.9880     1.4270 ha         1 9BH       0.117000
     67 H31         -8.7590     7.0560     1.1420 ha         1 9BH       0.111500
     68 H32        -10.7860     8.2520     1.8650 ha         1 9BH       0.117000
     69 H33        -13.8450    13.1110     2.5370 h5         1 9BH       0.026100
     70 H34        -11.8720     8.5310     3.6220 hc         1 9BH       0.016033
     71 H35        -12.1400     9.5720     5.0270 hc         1 9BH       0.016033
     72 H36        -10.5210     9.4280     4.3290 hc         1 9BH       0.016033
@<TRIPOS>BOND
     1     1     2 1   
     2     1     4 1   
     3     1    37 1   
     4     1    38 1   
     5     2     3 1   
     6     2    39 1   
     7     2    40 1   
     8     3     4 1   
     9     3    41 1   
    10     3    42 1   
    11     4     5 1   
    12     4    43 1   
    13     5     6 2   
    14     5     7 1   
    15     7     8 1   
    16     7    44 1   
    17     8     9 1   
    18     8    13 1   
    19     8    45 1   
    20     9    10 1   
    21     9    11 1   
    22     9    12 1   
    23    10    46 1   
    24    10    47 1   
    25    10    48 1   
    26    11    49 1   
    27    11    50 1   
    28    11    51 1   
    29    12    52 1   
    30    12    53 1   
    31    12    54 1   
    32    13    14 2   
    33    13    15 1   
    34    15    16 1   
    35    15    20 1   
    36    16    17 1   
    37    16    55 1   
    38    16    56 1   
    39    17    18 1   
    40    17    19 1   
    41    17    57 1   
    42    18    58 1   
    43    19    20 1   
    44    19    59 1   
    45    19    60 1   
    46    20    21 1   
    47    20    61 1   
    48    21    22 2   
    49    21    23 1   
    50    23    24 1   
    51    23    62 1   
    52    24    25 1   
    53    24    63 1   
    54    24    64 1   
    55    25    26 ar  
    56    25    28 ar  
    57    26    27 ar  
    58    26    65 1   
    59    27    30 ar  
    60    27    66 1   
    61    28    29 ar  
    62    28    67 1   
    63    29    30 ar  
    64    29    68 1   
    65    30    31 1   
    66    31    32 1   
    67    31    35 2   
    68    32    33 1   
    69    33    34 2   
    70    33    69 1   
    71    34    35 1   
    72    35    36 1   
    73    36    70 1   
    74    36    71 1   
    75    36    72 1   
@<TRIPOS>SUBSTRUCTURE
     1 9BH         1 TEMP              0 ****  ****    0 ROOT
