@<TRIPOS>MOLECULE
molecule
   76    79     1     0     0
SMALL
bcc


@<TRIPOS>ATOM
      1 CAA          0.0000     0.0000     0.0000 c3         1 9BK      -0.171100
      2 CAZ          1.5070     0.0000     0.0000 c          1 9BK       0.656100
      3 OAF          2.1130     0.0000     1.0510 o          1 9BK      -0.589100
      4 NAX          2.1820     0.0000    -1.1660 ns         1 9BK      -0.566900
      5 CBM          3.6430     0.1080    -1.1680 cx         1 9BK      -0.040600
      6 CAP          4.2610     1.3290    -0.4820 cx         1 9BK      -0.100900
      7 CAQ          4.2670     1.2230    -2.0090 cx         1 9BK      -0.100900
      8 CBB          4.3910    -1.1960    -1.0760 c          1 9BK       0.697100
      9 OAH          5.4380    -1.2530    -0.4650 o          1 9BK      -0.609100
     10 NAW          3.8990    -2.3000    -1.6720 ns         1 9BK      -0.559900
     11 CBJ          4.6550    -3.5540    -1.6310 c3         1 9BK       0.061700
     12 CBL          4.3420    -4.2960    -0.3300 c3         1 9BK      -0.072000
     13 CAE          4.8250    -3.4640     0.8600 c3         1 9BK      -0.091100
     14 CAC          2.8320    -4.5160    -0.2190 c3         1 9BK      -0.091100
     15 CAD          5.0560    -5.6490    -0.3300 c3         1 9BK      -0.091100
     16 CBC          4.2650    -4.4140    -2.8060 c          1 9BK       0.689100
     17 OAI          3.1450    -4.3440    -3.2640 o          1 9BK      -0.600100
     18 N            5.1630    -5.2610    -3.3480 n          1 9BK      -0.469800
     19 CD2          6.5280    -5.5030    -2.8460 c3         1 9BK       0.080000
     20 CG           7.3170    -6.0150    -4.0760 c3         1 9BK       0.127100
     21 OD1          7.7390    -4.9290    -4.9020 oh         1 9BK      -0.590800
     22 CB           6.2480    -6.8780    -4.7960 c3         1 9BK      -0.106400
     23 CA           4.9400    -6.1030    -4.5320 c3         1 9BK       0.049700
     24 C            3.8130    -7.0690    -4.2780 c          1 9BK       0.645100
     25 O            3.2330    -7.0600    -3.2130 o          1 9BK      -0.583100
     26 NAV          3.4490    -7.9470    -5.2350 ns         1 9BK      -0.588900
     27 CAR          2.3530    -8.8860    -4.9880 c3         1 9BK       0.161300
     28 CBD          2.1470    -9.7500    -6.2060 ca         1 9BK      -0.115300
     29 CAK          2.8370   -10.9430    -6.3290 ca         1 9BK      -0.112500
     30 CAM          2.6530   -11.7380    -7.4420 ca         1 9BK      -0.117000
     31 CAL          1.2660    -9.3480    -7.1940 ca         1 9BK      -0.112500
     32 CAN          1.0720   -10.1350    -8.3110 ca         1 9BK      -0.117000
     33 CBF          1.7690   -11.3360    -8.4440 ca         1 9BK       0.003000
     34 CBG          1.5670   -12.1830    -9.6390 cc         1 9BK      -0.104400
     35 SAY          1.2900   -13.9240    -9.6440 ss         1 9BK      -0.199300
     36 CAO          1.1960   -13.9140   -11.3510 cd         1 9BK       0.441300
     37 NAU          1.3630   -12.7160   -11.8030 nc         1 9BK      -0.675000
     38 CBE          1.5580   -11.7600   -10.9220 cc         1 9BK       0.382600
     39 CAB          1.7660   -10.3190   -11.3100 c3         1 9BK      -0.116400
     40 H1          -0.3610    -0.9630    -0.3400 hc         1 9BK       0.062033
     41 H2          -0.3610     0.1870     1.0040 hc         1 9BK       0.062033
     42 H3          -0.3610     0.7760    -0.6640 hc         1 9BK       0.062033
     43 H4           1.6820    -0.0440    -2.0330 hn         1 9BK       0.316500
     44 H5           5.2160     1.1600     0.0010 hc         1 9BK       0.090200
     45 H6           3.5570     2.0380    -0.0650 hc         1 9BK       0.090200
     46 H7           5.2250     0.9900    -2.4580 hc         1 9BK       0.090200
     47 H8           3.5660     1.8680    -2.5240 hc         1 9BK       0.090200
     48 H9           3.0340    -2.2550    -2.1730 hn         1 9BK       0.334500
     49 H10          5.7150    -3.3380    -1.6780 h1         1 9BK       0.082700
     50 H11          4.1350    -2.6470     1.0330 hc         1 9BK       0.043811
     51 H12          4.8710    -4.0900     1.7430 hc         1 9BK       0.043811
     52 H13          5.8100    -3.0670     0.6470 hc         1 9BK       0.043811
     53 H14          2.3210    -3.5650    -0.3120 hc         1 9BK       0.043811
     54 H15          2.6010    -4.9570     0.7430 hc         1 9BK       0.043811
     55 H16          2.5050    -5.1810    -1.0090 hc         1 9BK       0.043811
     56 H17          4.8080    -6.1890     0.5760 hc         1 9BK       0.043811
     57 H18          6.1270    -5.4930    -0.3750 hc         1 9BK       0.043811
     58 H19          4.7390    -6.2250    -1.1910 hc         1 9BK       0.043811
     59 H20          6.5140    -6.2570    -2.0680 h1         1 9BK       0.067700
     60 H21          6.9610    -4.5810    -2.4780 h1         1 9BK       0.067700
     61 H22          8.1580    -6.6240    -3.7670 h1         1 9BK       0.050700
     62 H23          8.6590    -5.0150    -5.0900 ho         1 9BK       0.406000
     63 H24          6.1990    -7.8680    -4.3580 hc         1 9BK       0.066200
     64 H25          6.4520    -6.9310    -5.8580 hc         1 9BK       0.066200
     65 H26          4.7090    -5.4780    -5.3860 h1         1 9BK       0.083700
     66 H27          3.8970    -7.9260    -6.1300 hn         1 9BK       0.314500
     67 H28          1.4440    -8.3350    -4.7790 h1         1 9BK       0.061700
     68 H29          2.5990    -9.5130    -4.1390 h1         1 9BK       0.061700
     69 H30          3.5220   -11.2540    -5.5490 ha         1 9BK       0.139000
     70 H31          3.1950   -12.6710    -7.5380 ha         1 9BK       0.140500
     71 H32          0.7250    -8.4150    -7.0890 ha         1 9BK       0.139000
     72 H33          0.3830    -9.8190    -9.0850 ha         1 9BK       0.140500
     73 H34          1.0250   -14.7890   -11.9660 h5         1 9BK       0.062100
     74 H35          0.8620    -9.7570   -11.1110 hc         1 9BK       0.052367
     75 H36          2.5840    -9.9040   -10.7340 hc         1 9BK       0.052367
     76 H37          2.0020   -10.2600   -12.3660 hc         1 9BK       0.052367
@<TRIPOS>BOND
     1    37    36 2
     2    37    38 1
     3    36    35 1
     4    39    38 1
     5    38    34 2
     6    35    34 1
     7    34    33 1
     8    33    30 ar
     9    33    32 ar
    10    30    29 ar
    11    32    31 ar
    12    29    28 ar
    13    31    28 ar
    14    28    27 1
    15    27    26 1
    16    26    24 1
    17    22    23 1
    18    22    20 1
    19    24    25 2
    20    24    23 1
    21    23    18 1
    22    20    21 1
    23    20    19 1
    24    18    19 1
    25    18    16 1
    26    17    16 2
    27    16    11 1
    28    13    12 1
    29    11    12 1
    30    11    10 1
    31    12    14 1
    32    12    15 1
    33    10     8 1
    34     8     9 2
    35     8     5 1
    36     7     5 1
    37     7     6 1
    38     5     4 1
    39     5     6 1
    40     4     2 1
    41     1     2 1
    42     2     3 2
    43     1    40 1
    44     1    41 1
    45     1    42 1
    46     4    43 1
    47     6    44 1
    48     6    45 1
    49     7    46 1
    50     7    47 1
    51    10    48 1
    52    11    49 1
    53    13    50 1
    54    13    51 1
    55    13    52 1
    56    14    53 1
    57    14    54 1
    58    14    55 1
    59    15    56 1
    60    15    57 1
    61    15    58 1
    62    19    59 1
    63    19    60 1
    64    20    61 1
    65    21    62 1
    66    22    63 1
    67    22    64 1
    68    23    65 1
    69    26    66 1
    70    27    67 1
    71    27    68 1
    72    29    69 1
    73    30    70 1
    74    31    71 1
    75    32    72 1
    76    36    73 1
    77    39    74 1
    78    39    75 1
    79    39    76 1
@<TRIPOS>SUBSTRUCTURE
     1 9BK         1 TEMP              0 ****  ****    0 ROOT
