@<TRIPOS>MOLECULE
molecule
   48    48     1     0     0
SMALL
bcc


@<TRIPOS>ATOM
      1 CAA          0.0000     0.0000     0.0000 c3         1 9BL       0.139700
      2 OAP          1.4530     0.0000     0.0000 os         1 9BL      -0.426900
      3 CAS          2.0640     0.0000     1.2010 c          1 9BL       0.645300
      4 OAF          1.4030    -0.0010     2.2200 o          1 9BL      -0.558000
      5 CAR          3.5320     0.0000     1.2780 ce         1 9BL      -0.180400
      6 CAC          4.3520     0.0010     0.0130 c3         1 9BL      -0.051900
      7 CAK          4.1360    -0.0000     2.4630 c2         1 9BL      -0.089200
      8 CAM          5.6360     0.1240     2.5450 c3         1 9BL      -0.057200
      9 CAN          6.0020     1.2920     3.4610 c3         1 9BL      -0.033200
     10 CAQ          7.5020     1.4160     3.5430 c2         1 9BL      -0.125400
     11 CAB          8.2740     0.5840     4.5350 c3         1 9BL      -0.056900
     12 CAL          8.1360     2.2460     2.7500 c2         1 9BL      -0.167200
     13 CAO          9.6200     2.4520     2.9070 c3         1 9BL       0.012100
     14 CAY         10.3030     2.2120     1.5860 ca         1 9BL      -0.138300
     15 CAV         10.4850     3.2590     0.7000 ca         1 9BL       0.201100
     16 OAH         10.0500     4.5030     1.0160 oh         1 9BL      -0.494100
     17 CAX         11.1240     3.0250    -0.5310 ca         1 9BL      -0.248600
     18 CAJ         11.3240     4.1240    -1.4780 c          1 9BL       0.580500
     19 OAE         10.9370     5.2410    -1.2010 o          1 9BL      -0.514100
     20 CAT         11.5690     1.7340    -0.8480 ca         1 9BL       0.003700
     21 CAD         12.2560     1.4760    -2.1650 c3         1 9BL      -0.064800
     22 CAW         11.3830     0.7100     0.0370 ca         1 9BL      -0.069600
     23 ClA         11.9370    -0.8860    -0.3610 cl         1 9BL      -0.097400
     24 CAU         10.7550     0.9410     1.2590 ca         1 9BL       0.180100
     25 OAG         10.5750    -0.0840     2.1300 oh         1 9BL      -0.493100
     26 H1          -0.3610     0.8840     0.5110 h1         1 9BL       0.048367
     27 H2          -0.3610     0.0010    -1.0210 h1         1 9BL       0.048367
     28 H3          -0.3610    -0.8850     0.5100 h1         1 9BL       0.048367
     29 H4           3.7100    -0.2050    -0.8340 hc         1 9BL       0.049033
     30 H5           4.8190     0.9700    -0.1140 hc         1 9BL       0.049033
     31 H6           5.1180    -0.7630     0.0800 hc         1 9BL       0.049033
     32 H7           3.5450    -0.0020     3.3710 ha         1 9BL       0.151000
     33 H8           6.0530    -0.7930     2.9440 hc         1 9BL       0.061200
     34 H9           6.0370     0.3020     1.5540 hc         1 9BL       0.061200
     35 H10          5.6000     1.1140     4.4510 hc         1 9BL       0.051700
     36 H11          5.5860     2.2090     3.0620 hc         1 9BL       0.051700
     37 H12          8.9040     1.2290     5.1350 hc         1 9BL       0.044033
     38 H13          7.5820     0.0550     5.1780 hc         1 9BL       0.044033
     39 H14          8.8920    -0.1310     4.0030 hc         1 9BL       0.044033
     40 H15          7.5800     2.8420     2.0370 ha         1 9BL       0.136000
     41 H16          9.8110     3.4670     3.2330 hc         1 9BL       0.061700
     42 H17         10.0050     1.7580     3.6440 hc         1 9BL       0.061700
     43 H18         10.7500     4.9870     1.4220 ho         1 9BL       0.435000
     44 H19         11.8060     3.9390    -2.4300 h4         1 9BL       0.004200
     45 H20         11.5870     1.7340    -2.9770 hc         1 9BL       0.058033
     46 H21         13.1520     2.0800    -2.2290 hc         1 9BL       0.058033
     47 H22         12.5210     0.4280    -2.2350 hc         1 9BL       0.058033
     48 H23         11.3710    -0.5870     2.1910 ho         1 9BL       0.432000
@<TRIPOS>BOND
     1    11    10 1
     2    25    24 1
     3    10     9 1
     4    10    12 2
     5     9     8 1
     6    23    22 1
     7     8     7 1
     8    24    22 ar
     9    24    14 ar
    10     6     5 1
    11    13    12 1
    12    13    14 1
    13    22    20 ar
    14    14    15 ar
    15     7     5 2
    16     5     3 1
    17    20    21 1
    18    20    17 ar
    19    15    17 ar
    20    15    16 1
    21     3     4 2
    22     3     2 1
    23    17    18 1
    24     2     1 1
    25    18    19 2
    26     1    26 1
    27     1    27 1
    28     1    28 1
    29     6    29 1
    30     6    30 1
    31     6    31 1
    32     7    32 1
    33     8    33 1
    34     8    34 1
    35     9    35 1
    36     9    36 1
    37    11    37 1
    38    11    38 1
    39    11    39 1
    40    12    40 1
    41    13    41 1
    42    13    42 1
    43    16    43 1
    44    18    44 1
    45    21    45 1
    46    21    46 1
    47    21    47 1
    48    25    48 1
@<TRIPOS>SUBSTRUCTURE
     1 9BL         1 TEMP              0 ****  ****    0 ROOT
