@<TRIPOS>MOLECULE
9BM
   58    61     1     0     0
SMALL
bcc


@<TRIPOS>ATOM
      1 C01         0.9220    0.6890    0.5230 c3        1 9BM     -0.136400
      2 C02         2.3670    0.4400    0.3700 cc        1 9BM      0.354600
      3 N01         3.2770    0.3700    1.3610 nd        1 9BM     -0.389300
      4 O01         4.4700    0.1390    0.8460 os        1 9BM     -0.134100
      5 C03         4.3800    0.0480   -0.5650 cd        1 9BM      0.266000
      6 C04         5.6220   -0.2100   -1.2900 c3        1 9BM     -0.136400
      7 C05         3.0530    0.2330   -0.9160 cc        1 9BM     -0.236600
      8 C06         2.4740    0.2450   -2.2350 ca        1 9BM     -0.146300
      9 C07         1.4700   -0.7120   -2.6430 ca        1 9BM      0.622600
     10 C09         1.3200    0.1630   -4.7920 ca        1 9BM      0.306300
     11 C10         0.7340    0.1630   -6.1310 ca        1 9BM      0.121300
     12 N02        -0.2980   -0.7300   -6.4640 nh        1 9BM     -0.619000
     13 C11        -0.1380   -2.1200   -6.4180 ca        1 9BM      0.199600
     14 C12         1.1320   -2.6960   -6.1670 ca        1 9BM     -0.176000
     15 C13         1.2950   -4.0680   -6.0470 ca        1 9BM     -0.110000
     16 C14         0.1990   -4.9100   -6.1980 ca        1 9BM     -0.192000
     17 C15        -1.0500   -4.3640   -6.4860 ca        1 9BM     -0.112000
     18 C16        -1.2590   -2.9880   -6.6150 ca        1 9BM     -0.106300
     19 C17        -2.6360   -2.4700   -6.9660 c3        1 9BM      0.004300
     20 C19        -2.5940   -1.6510   -8.2600 c3        1 9BM     -0.089433
     21 C18        -3.6320   -3.6110   -7.1880 c3        1 9BM     -0.089433
     22 C20        -3.1970   -1.6290   -5.8200 c3        1 9BM     -0.089433
     23 C21         1.1420    1.1620   -7.0150 ca        1 9BM     -0.276900
     24 C22         2.1310    2.1010   -6.5900 ca        1 9BM      0.452200
     25 N1          2.7040    2.1240   -5.4000 nb        1 9BM     -0.703000
     26 C23         2.3030    1.1690   -4.4910 ca        1 9BM      0.264300
     27 C24         2.8730    1.1690   -3.1770 ca        1 9BM     -0.111300
     28 C1          0.6090    1.3480   -8.4310 c         1 9BM      0.919200
     29 C00         0.1670   -2.6340   -2.0240 c3        1 9BM      0.124700
     30 O1         -0.5300    0.8830   -8.7280 o         1 9BM     -0.818800
     31 O02         1.3400    1.9870   -9.2350 o         1 9BM     -0.818800
     32 O05         1.0970   -1.6150   -1.6610 os        1 9BM     -0.459100
     33 N07         0.9190   -0.7580   -3.8550 nb        1 9BM     -0.702000
     34 H011        0.6710    1.6950    0.1010 hc        1 9BM      0.060367
     35 H012        0.3560   -0.0900   -0.0510 hc        1 9BM      0.060367
     36 H013        0.6020    0.6590    1.5930 hc        1 9BM      0.060367
     37 H041        6.4730    0.3500   -0.8290 hc        1 9BM      0.063367
     38 H042        5.5050    0.1070   -2.3580 hc        1 9BM      0.063367
     39 H043        5.8610   -1.3040   -1.2620 hc        1 9BM      0.063367
     40 H24         3.6350    1.9240   -2.9250 ha        1 9BM      0.149000
     41 H02        -0.8540   -0.3960   -7.2440 hn        1 9BM      0.481800
     42 H12         2.0130   -2.0430   -6.0660 ha        1 9BM      0.137000
     43 H13         2.2920   -4.4840   -5.8430 ha        1 9BM      0.116000
     44 H14         0.3140   -5.9970   -6.1030 ha        1 9BM      0.113000
     45 H15        -1.8830   -5.0730   -6.6120 ha        1 9BM      0.118000
     46 H181       -3.2950   -4.2750   -8.0190 hc        1 9BM      0.036922
     47 H182       -3.7610   -4.2140   -6.2580 hc        1 9BM      0.036922
     48 H183       -4.6300   -3.1880   -7.4630 hc        1 9BM      0.036922
     49 H191       -2.6540   -0.5520   -8.0580 hc        1 9BM      0.036922
     50 H192       -1.6520   -1.8440   -8.8290 hc        1 9BM      0.036922
     51 H193       -3.4540   -1.9130   -8.9220 hc        1 9BM      0.036922
     52 H201       -2.6590   -0.6600   -5.7070 hc        1 9BM      0.036922
     53 H202       -4.2730   -1.4010   -6.0150 hc        1 9BM      0.036922
     54 H203       -3.1190   -2.1930   -4.8600 hc        1 9BM      0.036922
     55 H22         2.4590    2.8620   -7.3290 h4        1 9BM      0.053100
     56 H001        0.5710   -3.2630   -2.8530 h1        1 9BM      0.048033
     57 H002       -0.8130   -2.1870   -2.3170 h1        1 9BM      0.048033
     58 H003        0.0680   -3.2310   -1.0820 h1        1 9BM      0.048033
@<TRIPOS>BOND
     1    1    2 1   
     2    1   34 1   
     3    1   35 1   
     4    1   36 1   
     5    2    3 2   
     6    2    7 1   
     7    3    4 1   
     8    4    5 1   
     9    5    6 1   
    10    5    7 2   
    11    6   37 1   
    12    6   38 1   
    13    6   39 1   
    14    7    8 1   
    15    8    9 ar  
    16    8   27 ar  
    17    9   32 1   
    18    9   33 ar  
    19   10   11 ar  
    20   10   26 ar  
    21   10   33 ar  
    22   11   12 1   
    23   11   23 ar  
    24   12   13 1   
    25   12   41 1   
    26   13   14 ar  
    27   13   18 ar  
    28   14   15 ar  
    29   14   42 1   
    30   15   16 ar  
    31   15   43 1   
    32   16   17 ar  
    33   16   44 1   
    34   17   18 ar  
    35   17   45 1   
    36   18   19 1   
    37   19   20 1   
    38   19   21 1   
    39   19   22 1   
    40   20   49 1   
    41   20   50 1   
    42   20   51 1   
    43   21   46 1   
    44   21   47 1   
    45   21   48 1   
    46   22   52 1   
    47   22   53 1   
    48   22   54 1   
    49   23   24 ar  
    50   23   28 1   
    51   24   25 ar  
    52   24   55 1   
    53   25   26 ar  
    54   26   27 ar  
    55   27   40 1   
    56   28   30 1   
    57   28   31 1   
    58   29   32 1   
    59   29   56 1   
    60   29   57 1   
    61   29   58 1   
@<TRIPOS>SUBSTRUCTURE
     1 9BM         1 TEMP              0 ****  ****    0 ROOT
