@<TRIPOS>MOLECULE
9BN
   74    77     1     0     0
SMALL
bcc


@<TRIPOS>ATOM
      1 CAP          0.0000     0.0000     0.0000 cx         1 9BN      -0.039900
      2 CAQ          1.5300     0.0000     0.0000 cx         1 9BN      -0.039900
      3 CBL          0.7640     0.0000     1.3260 cx         1 9BN      -0.321000
      4 CAY          0.7640    -1.2750     2.1300 c          1 9BN       0.646100
      5 OAF         -0.2820    -1.7810     2.4580 o          1 9BN      -0.530100
      6 CAA          2.0690    -1.9180     2.5220 c3         1 9BN      -0.090100
      7 CBA          0.7630     1.2750     2.1290 c          1 9BN       0.618100
      8 OAH         -0.2870     1.7820     2.4620 o          1 9BN      -0.634100
      9 NAW          1.9300     1.8530     2.4770 ns         1 9BN      -0.170900
     10 CBI          1.9300     3.1380     3.1810 c3         1 9BN      -0.048300
     11 CBK          1.7680     2.8980     4.6830 c3         1 9BN      -0.066000
     12 CAE          0.4300     2.2070     4.9480 c3         1 9BN      -0.018433
     13 CAC          2.9100     2.0100     5.1820 c3         1 9BN      -0.018433
     14 CAD          1.8060     4.2390     5.4200 c3         1 9BN      -0.018433
     15 CBB          3.2320     3.8530     2.9230 c          1 9BN       0.610100
     16 OAI          4.2560     3.2160     2.7920 o          1 9BN      -0.637100
     17 N            3.2570     5.1970     2.8360 n          1 9BN      -0.115800
     18 CD2          2.1090     6.0940     3.0590 c3         1 9BN       0.006000
     19 CG           2.4530     7.3820     2.2700 c3         1 9BN       0.182100
     20 OD1          2.1520     7.2280     0.8810 oh         1 9BN      -0.573800
     21 CB           3.9840     7.4880     2.4990 c3         1 9BN      -0.053400
     22 CA           4.4360     6.0120     2.5110 c3         1 9BN      -0.032300
     23 C            5.5090     5.8130     3.5510 c          1 9BN       0.559100
     24 O            5.3210     5.0540     4.4780 o          1 9BN      -0.625100
     25 NAV          6.6760     6.4790     3.4510 ns         1 9BN      -0.197900
     26 CAR          7.7190     6.2850     4.4620 c3         1 9BN       0.111300
     27 CBC          8.9140     7.1380     4.1210 ca         1 9BN      -0.124300
     28 CAK          9.0010     8.4300     4.6120 ca         1 9BN      -0.082000
     29 CAM         10.0920     9.2150     4.3030 ca         1 9BN      -0.092500
     30 CAL          9.9220     6.6250     3.3250 ca         1 9BN      -0.082000
     31 CAN         11.0180     7.4000     3.0100 ca         1 9BN      -0.092500
     32 CBE         11.1090     8.7050     3.4960 ca         1 9BN       0.014000
     33 CBF         12.2820     9.5420     3.1610 cc         1 9BN      -0.055400
     34 SAX         13.2360    10.4950     4.2960 ss         1 9BN      -0.302300
     35 CAO         14.2440    11.0230     3.0210 cc         1 9BN       0.464300
     36 NAU         13.8580    10.5100     1.9010 nd         1 9BN      -0.551000
     37 CBD         12.8170     9.7080     1.9320 cd         1 9BN       0.330600
     38 CAB         12.2590     9.0410     0.7000 c3         1 9BN      -0.019400
     39 H1          -0.4670    -0.9390    -0.2700 hc         1 9BN       0.052200
     40 H2          -0.4670     0.9390    -0.2700 hc         1 9BN       0.052200
     41 H3           1.9970    -0.9390    -0.2700 hc         1 9BN       0.052200
     42 H4           1.9970     0.9390    -0.2700 hc         1 9BN       0.052200
     43 H5           2.8920    -1.3060     2.1730 hc         1 9BN       0.027033
     44 H6           2.1350    -2.9020     2.0750 hc         1 9BN       0.027033
     45 H7           2.1170    -2.0070     3.6000 hc         1 9BN       0.027033
     46 H8           2.7970     1.4300     2.2100 hn         1 9BN       0.199500
     47 H9           1.1080     3.7450     2.8220 h1         1 9BN       0.062700
     48 H10          0.4920     1.1690     4.6440 hc         1 9BN       0.017144
     49 H11         -0.3500     2.7030     4.3830 hc         1 9BN       0.017144
     50 H12          0.1990     2.2600     6.0050 hc         1 9BN       0.017144
     51 H13          3.2220     1.3420     4.3880 hc         1 9BN       0.017144
     52 H14          2.5700     1.4270     6.0300 hc         1 9BN       0.017144
     53 H15          3.7460     2.6300     5.4820 hc         1 9BN       0.017144
     54 H16          1.6520     4.0720     6.4790 hc         1 9BN       0.017144
     55 H17          1.0230     4.8830     5.0380 hc         1 9BN       0.017144
     56 H18          2.7690     4.7100     5.2640 hc         1 9BN       0.017144
     57 H19          1.2020     5.6460     2.6710 h1         1 9BN       0.043200
     58 H20          2.0060     6.3160     4.1150 h1         1 9BN       0.043200
     59 H21          1.9420     8.2390     2.6910 h1         1 9BN       0.014700
     60 H22          1.6490     7.9680     0.5850 ho         1 9BN       0.395000
     61 H23          4.4560     8.0240     1.6840 hc         1 9BN       0.034700
     62 H24          4.1960     7.9590     3.4510 hc         1 9BN       0.034700
     63 H25          4.8120     5.7370     1.5330 h1         1 9BN       0.051700
     64 H26          6.8470     7.0750     2.6650 hn         1 9BN       0.176500
     65 H27          8.0130     5.2430     4.4820 h1         1 9BN       0.031700
     66 H28          7.3360     6.5710     5.4340 h1         1 9BN       0.031700
     67 H29          8.2100     8.8250     5.2380 ha         1 9BN       0.111500
     68 H30         10.1580    10.2270     4.6850 ha         1 9BN       0.117000
     69 H31          9.8500     5.6120     2.9490 ha         1 9BN       0.111500
     70 H32         11.8060     6.9970     2.3840 ha         1 9BN       0.117000
     71 H33         15.0860    11.6940     3.1360 h5         1 9BN       0.026100
     72 H34         12.5560     7.9990     0.6880 hc         1 9BN       0.016033
     73 H35         11.1780     9.1090     0.7110 hc         1 9BN       0.016033
     74 H36         12.6430     9.5360    -0.1830 hc         1 9BN       0.016033
@<TRIPOS>BOND
     1     1     2 1   
     2     1     3 1   
     3     1    39 1   
     4     1    40 1   
     5     2     3 1   
     6     2    41 1   
     7     2    42 1   
     8     3     4 1   
     9     3     7 1   
    10     4     5 2   
    11     4     6 1   
    12     6    43 1   
    13     6    44 1   
    14     6    45 1   
    15     7     8 2   
    16     7     9 1   
    17     9    10 1   
    18     9    46 1   
    19    10    11 1   
    20    10    15 1   
    21    10    47 1   
    22    11    12 1   
    23    11    13 1   
    24    11    14 1   
    25    12    48 1   
    26    12    49 1   
    27    12    50 1   
    28    13    51 1   
    29    13    52 1   
    30    13    53 1   
    31    14    54 1   
    32    14    55 1   
    33    14    56 1   
    34    15    16 2   
    35    15    17 1   
    36    17    18 1   
    37    17    22 1   
    38    18    19 1   
    39    18    57 1   
    40    18    58 1   
    41    19    20 1   
    42    19    21 1   
    43    19    59 1   
    44    20    60 1   
    45    21    22 1   
    46    21    61 1   
    47    21    62 1   
    48    22    23 1   
    49    22    63 1   
    50    23    24 2   
    51    23    25 1   
    52    25    26 1   
    53    25    64 1   
    54    26    27 1   
    55    26    65 1   
    56    26    66 1   
    57    27    28 ar  
    58    27    30 ar  
    59    28    29 ar  
    60    28    67 1   
    61    29    32 ar  
    62    29    68 1   
    63    30    31 ar  
    64    30    69 1   
    65    31    32 ar  
    66    31    70 1   
    67    32    33 1   
    68    33    34 1   
    69    33    37 2   
    70    34    35 1   
    71    35    36 2   
    72    35    71 1   
    73    36    37 1   
    74    37    38 1   
    75    38    72 1   
    76    38    73 1   
    77    38    74 1   
@<TRIPOS>SUBSTRUCTURE
     1 9BN         1 TEMP              0 ****  ****    0 ROOT
