@<TRIPOS>MOLECULE
molecule
   54    54     1     0     0
SMALL
bcc


@<TRIPOS>ATOM
      1 CAA          0.0000     0.0000     0.0000 c3         1 9BO      -0.140100
      2 CAR          1.5070     0.0000     0.0000 c          1 9BO       0.631100
      3 OAG          2.1110     0.0000     1.0460 o          1 9BO      -0.556000
      4 OAQ          2.1780     0.0000    -1.1620 os         1 9BO      -0.423900
      5 CBA          3.6280     0.0010    -1.0860 c3         1 9BO       0.191300
      6 CAE          4.1370    -1.4410    -1.0600 c3         1 9BO      -0.110100
      7 CAT          4.1930     0.7130    -2.2890 c2         1 9BO      -0.133400
      8 CAC          3.8110     0.2670    -3.6770 c3         1 9BO      -0.047900
      9 CAL          5.0180     1.7180    -2.1270 c2         1 9BO      -0.162200
     10 CAN          5.4870     2.5060    -3.3220 c3         1 9BO      -0.047200
     11 CAO          5.1890     3.9920    -3.1030 c3         1 9BO      -0.033200
     12 CAS          5.6580     4.7800    -4.2980 c2         1 9BO      -0.122400
     13 CAB          7.0940     5.2300    -4.3870 c3         1 9BO      -0.056900
     14 CAM          4.8190     5.0750    -5.2590 c2         1 9BO      -0.171200
     15 CAP          5.2580     5.9580    -6.3980 c3         1 9BO       0.012100
     16 CAZ          4.9910     5.2600    -7.7070 ca         1 9BO      -0.137300
     17 CAW          3.7770     5.4290    -8.3480 ca         1 9BO       0.201100
     18 OAI          2.8230     6.2240    -7.8040 oh         1 9BO      -0.495100
     19 CAY          3.5370     4.7740    -9.5690 ca         1 9BO      -0.249600
     20 CAK          2.2560     4.9450   -10.2590 c          1 9BO       0.581500
     21 OAF          1.3990     5.6550    -9.7770 o          1 9BO      -0.514100
     22 CAU          4.5300     3.9540   -10.1230 ca         1 9BO       0.003700
     23 CAD          4.2820     3.2490   -11.4320 c3         1 9BO      -0.064800
     24 CAX          5.7240     3.7960    -9.4800 ca         1 9BO      -0.069600
     25 ClA          6.9500     2.7800   -10.1720 cl         1 9BO      -0.098400
     26 CAV          5.9650     4.4490    -8.2730 ca         1 9BO       0.180100
     27 OAH          7.1550     4.2840    -7.6420 oh         1 9BO      -0.492100
     28 H1          -0.3610    -0.1230     1.0140 hc         1 9BO       0.068700
     29 H2          -0.3610    -0.8160    -0.6140 hc         1 9BO       0.068700
     30 H3          -0.3610     0.9400    -0.4000 hc         1 9BO       0.068700
     31 H4           3.9420     0.5120    -0.1840 h1         1 9BO       0.073700
     32 H5           4.1110    -1.8150    -0.0440 hc         1 9BO       0.048700
     33 H6           5.1550    -1.4710    -1.4300 hc         1 9BO       0.048700
     34 H7           3.5070    -2.0580    -1.6880 hc         1 9BO       0.048700
     35 H8           3.2660    -0.6670    -3.6190 hc         1 9BO       0.044700
     36 H9           4.7060     0.1270    -4.2710 hc         1 9BO       0.044700
     37 H10          3.1860     1.0220    -4.1390 hc         1 9BO       0.044700
     38 H11          5.2920     2.0360    -1.1290 ha         1 9BO       0.126000
     39 H12          4.9690     2.1610    -4.2090 hc         1 9BO       0.055200
     40 H13          6.5540     2.3670    -3.4500 hc         1 9BO       0.055200
     41 H14          4.1220     4.1310    -2.9750 hc         1 9BO       0.049200
     42 H15          5.7070     4.3370    -2.2170 hc         1 9BO       0.049200
     43 H16          7.1270     6.2980    -4.5670 hc         1 9BO       0.043367
     44 H17          7.6010     5.0050    -3.4560 hc         1 9BO       0.043367
     45 H18          7.5850     4.7110    -5.2010 hc         1 9BO       0.043367
     46 H19          3.7870     4.7520    -5.1940 ha         1 9BO       0.136000
     47 H20          6.3180     6.1640    -6.3080 hc         1 9BO       0.061200
     48 H21          4.7050     6.8890    -6.3670 hc         1 9BO       0.061200
     49 H22          2.9010     7.0950    -8.1550 ho         1 9BO       0.434000
     50 H23          2.0880     4.4680   -11.2170 h4         1 9BO       0.003200
     51 H24          5.1450     2.6470   -11.6870 hc         1 9BO       0.057700
     52 H25          4.1100     3.9820   -12.2100 hc         1 9BO       0.057700
     53 H26          3.4110     2.6110   -11.3380 hc         1 9BO       0.057700
     54 H27          7.8560     4.3500    -8.2700 ho         1 9BO       0.432000
@<TRIPOS>BOND
     1    13    12 1
     2    27    26 1
     3    12    11 1
     4    12    14 2
     5    25    24 1
     6    11    10 1
     7    10     9 1
     8    26    24 ar
     9    26    16 ar
    10    15    14 1
    11    15    16 1
    12    24    22 ar
    13    16    17 ar
    14     8     7 1
    15     9     7 2
    16     7     5 1
    17    22    23 1
    18    22    19 ar
    19    17    19 ar
    20    17    18 1
    21    19    20 1
    22     5     4 1
    23     5     6 1
    24     4     2 1
    25     2     3 2
    26     2     1 1
    27    20    21 2
    28     1    28 1
    29     1    29 1
    30     1    30 1
    31     5    31 1
    32     6    32 1
    33     6    33 1
    34     6    34 1
    35     8    35 1
    36     8    36 1
    37     8    37 1
    38     9    38 1
    39    10    39 1
    40    10    40 1
    41    11    41 1
    42    11    42 1
    43    13    43 1
    44    13    44 1
    45    13    45 1
    46    14    46 1
    47    15    47 1
    48    15    48 1
    49    18    49 1
    50    20    50 1
    51    23    51 1
    52    23    52 1
    53    23    53 1
    54    27    54 1
@<TRIPOS>SUBSTRUCTURE
     1 9BO         1 TEMP              0 ****  ****    0 ROOT
