@<TRIPOS>MOLECULE
molecule
   58    58     1     0     0
SMALL
bcc


@<TRIPOS>ATOM
      1 CAA          0.0000     0.0000     0.0000 c3         1 9BR      -0.051400
      2 CAS          1.5080     0.0000     0.0000 c2         1 9BR      -0.130400
      3 CAB          2.2610     0.0000     1.3050 c3         1 9BR      -0.051400
      4 CAK          2.1620    -0.0010    -1.1350 c2         1 9BR      -0.185200
      5 CAN          3.6690    -0.0020    -1.1340 c3         1 9BR      -0.045200
      6 CAQ          4.1790    -1.1840    -1.9610 c3         1 9BR      -0.034200
      7 CAT          5.6860    -1.1840    -1.9610 c2         1 9BR      -0.131400
      8 CAC          6.4410    -0.3470    -2.9610 c3         1 9BR      -0.051900
      9 CAL          6.3410    -1.9130    -1.0910 c2         1 9BR      -0.182200
     10 CAO          7.8430    -1.8210    -1.0090 c3         1 9BR      -0.046200
     11 CAR          8.2560    -1.4960     0.4270 c3         1 9BR      -0.035200
     12 CAU          9.7580    -1.4030     0.5090 c2         1 9BR      -0.114400
     13 CAD         10.5800    -2.6500     0.7090 c3         1 9BR      -0.056900
     14 CAM         10.3490    -0.2390     0.4060 c2         1 9BR      -0.182200
     15 CAP         11.8400    -0.1300     0.6000 c3         1 9BR       0.007100
     16 CBA         12.4550     0.5480    -0.5970 ca         1 9BR      -0.133300
     17 CAX         12.5910     1.9240    -0.6200 ca         1 9BR       0.202100
     18 OAH         12.1730     2.6680     0.4350 oh         1 9BR      -0.498100
     19 CAZ         13.1660     2.5490    -1.7410 ca         1 9BR      -0.252600
     20 CAJ         13.3160     4.0050    -1.7770 c          1 9BR       0.581500
     21 OAF         12.9450     4.6770    -0.8370 o          1 9BR      -0.518100
     22 CAV         13.5940     1.7690    -2.8250 ca         1 9BR       0.002700
     23 CAE         14.2110     2.4310    -4.0310 c3         1 9BR      -0.064800
     24 CAY         13.4520     0.4120    -2.7890 ca         1 9BR      -0.067600
     25 ClA         13.9860    -0.5470    -4.1350 cl         1 9BR      -0.098400
     26 CAW         12.8880    -0.2090    -1.6770 ca         1 9BR       0.180100
     27 OAG         12.7540    -1.5590    -1.6530 oh         1 9BR      -0.494100
     28 H1          -0.3610     0.2880     0.9800 hc         1 9BR       0.040867
     29 H2          -0.3610     0.7040    -0.7400 hc         1 9BR       0.040867
     30 H3          -0.3610    -0.9930    -0.2400 hc         1 9BR       0.040867
     31 H4           2.8230    -0.9220     1.3970 hc         1 9BR       0.040867
     32 H5           1.5600     0.0790     2.1270 hc         1 9BR       0.040867
     33 H6           2.9420     0.8420     1.3290 hc         1 9BR       0.040867
     34 H7           1.6210    -0.0020    -2.0730 ha         1 9BR       0.124000
     35 H8           4.0300    -0.0910    -0.1160 hc         1 9BR       0.050700
     36 H9           4.0310     0.9240    -1.5650 hc         1 9BR       0.050700
     37 H10          3.8180    -1.0960    -2.9790 hc         1 9BR       0.047200
     38 H11          3.8180    -2.1100    -1.5290 hc         1 9BR       0.047200
     39 H12          6.9220     0.4790    -2.4510 hc         1 9BR       0.041033
     40 H13          5.7510     0.0400    -3.7020 hc         1 9BR       0.041033
     41 H14          7.1910    -0.9560    -3.4500 hc         1 9BR       0.041033
     42 H15          5.7970    -2.5150    -0.3730 ha         1 9BR       0.124000
     43 H16          8.2800    -2.7670    -1.3050 hc         1 9BR       0.052200
     44 H17          8.1940    -1.0390    -1.6710 hc         1 9BR       0.052200
     45 H18          7.9060    -2.2780     1.0900 hc         1 9BR       0.047200
     46 H19          7.8190    -0.5500     0.7230 hc         1 9BR       0.047200
     47 H20         11.2440    -2.5130     1.5550 hc         1 9BR       0.044700
     48 H21          9.9230    -3.4900     0.8980 hc         1 9BR       0.044700
     49 H22         11.1660    -2.8430    -0.1820 hc         1 9BR       0.044700
     50 H23          9.7570     0.6570     0.2620 ha         1 9BR       0.121000
     51 H24         12.2630    -1.1220     0.7100 hc         1 9BR       0.069700
     52 H25         12.0460     0.4510     1.4900 hc         1 9BR       0.069700
     53 H26         11.3280     3.0400     0.2430 ho         1 9BR       0.438000
     54 H27         13.7650     4.4820    -2.6400 h4         1 9BR       0.003200
     55 H28         13.4950     3.1120    -4.4750 hc         1 9BR       0.057700
     56 H29         14.4880     1.6750    -4.7550 hc         1 9BR       0.057700
     57 H30         15.0930     2.9820    -3.7280 hc         1 9BR       0.057700
     58 H31         13.5590    -1.9600    -1.9380 ho         1 9BR       0.432000
@<TRIPOS>BOND
     1    13    12 1
     2    27    26 1
     3    10    11 1
     4    10     9 1
     5    12    11 1
     6    12    14 2
     7    25    24 1
     8     9     7 2
     9    26    24 ar
    10    26    16 ar
    11    15    14 1
    12    15    16 1
    13    24    22 ar
    14     7     6 1
    15     7     8 1
    16    16    17 ar
    17     6     5 1
    18    22    23 1
    19    22    19 ar
    20    17    19 ar
    21    17    18 1
    22    19    20 1
    23     5     4 1
    24     4     2 2
    25     1     2 1
    26     2     3 1
    27    20    21 2
    28     1    28 1
    29     1    29 1
    30     1    30 1
    31     3    31 1
    32     3    32 1
    33     3    33 1
    34     4    34 1
    35     5    35 1
    36     5    36 1
    37     6    37 1
    38     6    38 1
    39     8    39 1
    40     8    40 1
    41     8    41 1
    42     9    42 1
    43    10    43 1
    44    10    44 1
    45    11    45 1
    46    11    46 1
    47    13    47 1
    48    13    48 1
    49    13    49 1
    50    14    50 1
    51    15    51 1
    52    15    52 1
    53    18    53 1
    54    20    54 1
    55    23    55 1
    56    23    56 1
    57    23    57 1
    58    27    58 1
@<TRIPOS>SUBSTRUCTURE
     1 9BR         1 TEMP              0 ****  ****    0 ROOT
