@<TRIPOS>MOLECULE
molecule
   19    20     1     0     0
SMALL
bcc


@<TRIPOS>ATOM
      1 N3           0.0000     0.0000     0.0000 nb         1 9BS      -0.712500
      2 C4           2.0500    -0.0000    -1.2950 cp         1 9BS       0.374300
      3 N2           2.0200     0.0000     1.1290 nb         1 9BS      -0.712500
      4 C7           1.4050    -0.0010     2.2990 ca         1 9BS       0.456200
      5 C6           1.3260     0.0000     0.0000 cp         1 9BS       0.636000
      6 C9          -0.6750    -0.0000     1.1360 ca         1 9BS       0.456200
      7 C8           0.0190     0.0000     2.3370 ca         1 9BS      -0.384600
      8 C1           2.0220    -0.0130    -3.6890 ca         1 9BS      -0.107000
      9 C2           3.4080    -0.0120    -3.6570 ca         1 9BS      -0.242300
     10 C3           4.0570    -0.0010    -2.4340 ca         1 9BS       0.412200
     11 N1           3.3770    -0.0010    -1.3070 nb         1 9BS      -0.648000
     12 C5           1.3320    -0.0060    -2.4880 ca         1 9BS      -0.206300
     13 H1           1.9780    -0.0010     3.2190 h4         1 9BS       0.031600
     14 H2          -1.7590     0.0000     1.1290 h4         1 9BS       0.031600
     15 H3          -0.5100    -0.0000     3.2820 ha         1 9BS       0.146000
     16 H4           1.4900    -0.0190    -4.6330 ha         1 9BS       0.140000
     17 H5           3.9770    -0.0150    -4.5780 ha         1 9BS       0.138000
     18 H6           5.1400    -0.0020    -2.4050 h4         1 9BS       0.026100
     19 H7           0.2490    -0.0060    -2.4770 ha         1 9BS       0.161000
@<TRIPOS>BOND
     1     4     3 ar
     2     4     7 ar
     3     3     5 ar
     4    12     8 ar
     5    12     2 ar
     6     7     6 ar
     7     8     9 ar
     8     5     2 1
     9     5     1 ar
    10     2    11 ar
    11     6     1 ar
    12     9    10 ar
    13    11    10 ar
    14     4    13 1
    15     6    14 1
    16     7    15 1
    17     8    16 1
    18     9    17 1
    19    10    18 1
    20    12    19 1
@<TRIPOS>SUBSTRUCTURE
     1 9BS         1 TEMP              0 ****  ****    0 ROOT
