@<TRIPOS>MOLECULE
9BT
   66    68     1     0     0
SMALL
bcc


@<TRIPOS>ATOM
      1 CAA          0.0000     0.0000     0.0000 c3         1 9BT      -0.020400
      2 CBA          1.5080     0.0000     0.0000 cc         1 9BT       0.331600
      3 NAS          2.2220     0.0000     1.1040 nc         1 9BT      -0.549000
      4 CAN          3.5060     0.0000     0.9780 cd         1 9BT       0.465300
      5 SAV          3.9420    -0.0010    -0.6750 ss         1 9BT      -0.309300
      6 CBC          2.2400    -0.0070    -1.1340 cd         1 9BT      -0.055400
      7 CBB          1.7100    -0.0140    -2.5140 ca         1 9BT       0.013000
      8 CAM          2.2160     0.8740    -3.4640 ca         1 9BT      -0.092500
      9 CAK          1.7170     0.8610    -4.7510 ca         1 9BT      -0.082500
     10 CAL          0.7060    -0.9150    -2.8750 ca         1 9BT      -0.092500
     11 CAJ          0.2160    -0.9170    -4.1640 ca         1 9BT      -0.082500
     12 CAZ          0.7170    -0.0290    -5.1000 ca         1 9BT      -0.123300
     13 CAP          0.1770    -0.0370    -6.5060 c3         1 9BT       0.111300
     14 NAT          0.9570    -0.9690    -7.3240 ns         1 9BT      -0.196900
     15 C            0.6530    -1.1420    -8.6250 c          1 9BT       0.559100
     16 O           -0.2680    -0.5260    -9.1190 o          1 9BT      -0.625100
     17 CA           1.4550    -2.1020    -9.4660 c3         1 9BT      -0.031300
     18 CB           2.9250    -1.6350    -9.5370 c3         1 9BT      -0.052400
     19 CG           3.3210    -1.9550   -11.0020 c3         1 9BT       0.181100
     20 OD1          3.6940    -3.3280   -11.1440 oh         1 9BT      -0.573800
     21 CD2          1.9990    -1.6590   -11.7540 c3         1 9BT       0.008000
     22 N            0.9360    -2.1160   -10.8410 n          1 9BT      -0.117800
     23 CAY         -0.3070    -2.4870   -11.2080 c          1 9BT       0.611100
     24 OAG         -1.1300    -2.7690   -10.3620 o          1 9BT      -0.638100
     25 CBF         -0.6760    -2.5520   -12.6670 c3         1 9BT      -0.046300
     26 CBH         -1.3480    -1.2420   -13.0820 c3         1 9BT      -0.066000
     27 CAC         -2.6730    -1.0890   -12.3330 c3         1 9BT      -0.017100
     28 CAD         -0.4300    -0.0670   -12.7410 c3         1 9BT      -0.017100
     29 CAB         -1.6140    -1.2600   -14.5890 c3         1 9BT      -0.017100
     30 NAU         -1.6000    -3.6670   -12.8890 ns         1 9BT      -0.179900
     31 CAW         -1.6810    -4.2440   -14.1040 c          1 9BT       0.557100
     32 OAE         -0.9890    -3.8390   -15.0140 o          1 9BT      -0.627100
     33 CAO         -2.6320    -5.3900   -14.3320 c3         1 9BT       0.160400
     34 OAH         -2.5350    -5.8270   -15.6900 oh         1 9BT      -0.554800
     35 H1          -0.3610     0.2950     0.9780 hc         1 9BT       0.016700
     36 H2          -0.3610    -0.9940    -0.2330 hc         1 9BT       0.016700
     37 H3          -0.3610     0.6990    -0.7440 hc         1 9BT       0.016700
     38 H4           4.2090     0.0020     1.8030 h5         1 9BT       0.026100
     39 H5           2.9990     1.5720    -3.1930 ha         1 9BT       0.117000
     40 H6           2.1070     1.5520    -5.4890 ha         1 9BT       0.111500
     41 H7           0.3140    -1.6110    -2.1430 ha         1 9BT       0.117000
     42 H8          -0.5640    -1.6140    -4.4440 ha         1 9BT       0.111500
     43 H9           0.2500     0.9590    -6.9260 h1         1 9BT       0.031700
     44 H10         -0.8600    -0.3490    -6.4930 h1         1 9BT       0.031700
     45 H11          1.6980    -1.4990    -6.9100 hn         1 9BT       0.176500
     46 H12          1.4070    -3.0990    -9.0450 h1         1 9BT       0.052700
     47 H13          3.5380    -2.1990    -8.8440 hc         1 9BT       0.034200
     48 H14          2.9970    -0.5710    -9.3460 hc         1 9BT       0.034200
     49 H15          4.1110    -1.2950   -11.3400 h1         1 9BT       0.013700
     50 H16          4.5870    -3.3820   -11.4400 ho         1 9BT       0.395000
     51 H17          1.9620    -2.2150   -12.6820 h1         1 9BT       0.042200
     52 H18          1.9020    -0.5960   -11.9390 h1         1 9BT       0.042200
     53 H19          0.2190    -2.7020   -13.2590 h1         1 9BT       0.064700
     54 H20         -2.4810    -1.0180   -11.2690 hc         1 9BT       0.016478
     55 H21         -3.3010    -1.9500   -12.5300 hc         1 9BT       0.016478
     56 H22         -3.1770    -0.1910   -12.6700 hc         1 9BT       0.016478
     57 H23         -0.9160     0.8620   -13.0130 hc         1 9BT       0.016478
     58 H24         -0.2220    -0.0680   -11.6770 hc         1 9BT       0.016478
     59 H25          0.4990    -0.1630   -13.2900 hc         1 9BT       0.016478
     60 H26         -2.4390    -1.9280   -14.8020 hc         1 9BT       0.016478
     61 H27         -1.8630    -0.2600   -14.9240 hc         1 9BT       0.016478
     62 H28         -0.7270    -1.6040   -15.1080 hc         1 9BT       0.016478
     63 H29         -2.1400    -4.0290   -12.1280 hn         1 9BT       0.193500
     64 H30         -2.3760    -6.2090   -13.6710 h1         1 9BT      -0.003300
     65 H31         -3.6450    -5.0650   -14.1290 h1         1 9BT      -0.003300
     66 H32         -3.0780    -6.5870   -15.8150 ho         1 9BT       0.384000
@<TRIPOS>BOND
     1     1     2 1   
     2     1    35 1   
     3     1    36 1   
     4     1    37 1   
     5     2     3 1   
     6     2     6 2   
     7     3     4 2   
     8     4     5 1   
     9     4    38 1   
    10     5     6 1   
    11     6     7 1   
    12     7     8 ar  
    13     7    10 ar  
    14     8     9 ar  
    15     8    39 1   
    16     9    12 ar  
    17     9    40 1   
    18    10    11 ar  
    19    10    41 1   
    20    11    12 ar  
    21    11    42 1   
    22    12    13 1   
    23    13    14 1   
    24    13    43 1   
    25    13    44 1   
    26    14    15 1   
    27    14    45 1   
    28    15    16 2   
    29    15    17 1   
    30    17    18 1   
    31    17    22 1   
    32    17    46 1   
    33    18    19 1   
    34    18    47 1   
    35    18    48 1   
    36    19    20 1   
    37    19    21 1   
    38    19    49 1   
    39    20    50 1   
    40    21    22 1   
    41    21    51 1   
    42    21    52 1   
    43    22    23 1   
    44    23    24 2   
    45    23    25 1   
    46    25    26 1   
    47    25    30 1   
    48    25    53 1   
    49    26    27 1   
    50    26    28 1   
    51    26    29 1   
    52    27    54 1   
    53    27    55 1   
    54    27    56 1   
    55    28    57 1   
    56    28    58 1   
    57    28    59 1   
    58    29    60 1   
    59    29    61 1   
    60    29    62 1   
    61    30    31 1   
    62    30    63 1   
    63    31    32 2   
    64    31    33 1   
    65    33    34 1   
    66    33    64 1   
    67    33    65 1   
    68    34    66 1   
@<TRIPOS>SUBSTRUCTURE
     1 9BT         1 TEMP              0 ****  ****    0 ROOT
