@<TRIPOS>MOLECULE
molecule
   66    68     1     0     0
SMALL
bcc


@<TRIPOS>ATOM
      1 CAA          0.0000     0.0000     0.0000 c3         1 9BT      -0.117400
      2 CBA          1.5080     0.0000     0.0000 cc         1 9BT       0.383600
      3 NAS          2.2220     0.0000     1.1040 nc         1 9BT      -0.674000
      4 CAN          3.5060     0.0000     0.9780 cd         1 9BT       0.443300
      5 SAV          3.9420    -0.0010    -0.6750 ss         1 9BT      -0.206300
      6 CBC          2.2400    -0.0070    -1.1340 cd         1 9BT      -0.103400
      7 CBB          1.7100    -0.0140    -2.5140 ca         1 9BT       0.003000
      8 CAM          2.2160     0.8740    -3.4640 ca         1 9BT      -0.116500
      9 CAK          1.7170     0.8610    -4.7510 ca         1 9BT      -0.112500
     10 CAL          0.7060    -0.9150    -2.8750 ca         1 9BT      -0.116500
     11 CAJ          0.2160    -0.9170    -4.1640 ca         1 9BT      -0.112500
     12 CAZ          0.7170    -0.0290    -5.1000 ca         1 9BT      -0.114300
     13 CAP          0.1770    -0.0370    -6.5060 c3         1 9BT       0.161300
     14 NAT          0.9570    -0.9690    -7.3240 ns         1 9BT      -0.587900
     15 C            0.6530    -1.1420    -8.6250 c          1 9BT       0.645100
     16 O           -0.2680    -0.5260    -9.1190 o          1 9BT      -0.585100
     17 CA           1.4550    -2.1020    -9.4660 c3         1 9BT       0.049700
     18 CB           2.9250    -1.6350    -9.5370 c3         1 9BT      -0.105400
     19 CG           3.3210    -1.9550   -11.0020 c3         1 9BT       0.128100
     20 OD1          3.6940    -3.3280   -11.1440 oh         1 9BT      -0.589800
     21 CD2          1.9990    -1.6590   -11.7540 c3         1 9BT       0.082000
     22 N            0.9360    -2.1160   -10.8410 n          1 9BT      -0.469800
     23 CAY         -0.3070    -2.4870   -11.2080 c          1 9BT       0.687100
     24 OAG         -1.1300    -2.7690   -10.3620 o          1 9BT      -0.598100
     25 CBF         -0.6760    -2.5520   -12.6670 c3         1 9BT       0.064700
     26 CBH         -1.3480    -1.2420   -13.0820 c3         1 9BT      -0.073000
     27 CAC         -2.6730    -1.0890   -12.3330 c3         1 9BT      -0.089100
     28 CAD         -0.4300    -0.0670   -12.7410 c3         1 9BT      -0.089100
     29 CAB         -1.6140    -1.2600   -14.5890 c3         1 9BT      -0.089100
     30 NAU         -1.6000    -3.6670   -12.8890 ns         1 9BT      -0.573900
     31 CAW         -1.6810    -4.2440   -14.1040 c          1 9BT       0.657100
     32 OAE         -0.9890    -3.8390   -15.0140 o          1 9BT      -0.584100
     33 CAO         -2.6320    -5.3900   -14.3320 c3         1 9BT       0.070400
     34 OAH         -2.5350    -5.8270   -15.6900 oh         1 9BT      -0.575800
     35 H1          -0.3610     0.2950     0.9780 hc         1 9BT       0.053367
     36 H2          -0.3610    -0.9940    -0.2330 hc         1 9BT       0.053367
     37 H3          -0.3610     0.6990    -0.7440 hc         1 9BT       0.053367
     38 H4           4.2090     0.0020     1.8030 h5         1 9BT       0.062100
     39 H5           2.9990     1.5720    -3.1930 ha         1 9BT       0.140500
     40 H6           2.1070     1.5520    -5.4890 ha         1 9BT       0.139000
     41 H7           0.3140    -1.6110    -2.1430 ha         1 9BT       0.140500
     42 H8          -0.5640    -1.6140    -4.4440 ha         1 9BT       0.139000
     43 H9           0.2500     0.9590    -6.9260 h1         1 9BT       0.061700
     44 H10         -0.8600    -0.3490    -6.4930 h1         1 9BT       0.061700
     45 H11          1.6980    -1.4990    -6.9100 hn         1 9BT       0.314500
     46 H12          1.4070    -3.0990    -9.0450 h1         1 9BT       0.084700
     47 H13          3.5380    -2.1990    -8.8440 hc         1 9BT       0.066700
     48 H14          2.9970    -0.5710    -9.3460 hc         1 9BT       0.066700
     49 H15          4.1110    -1.2950   -11.3400 h1         1 9BT       0.050700
     50 H16          4.5870    -3.3820   -11.4400 ho         1 9BT       0.406000
     51 H17          1.9620    -2.2150   -12.6820 h1         1 9BT       0.066700
     52 H18          1.9020    -0.5960   -11.9390 h1         1 9BT       0.066700
     53 H19          0.2190    -2.7020   -13.2590 h1         1 9BT       0.084700
     54 H20         -2.4810    -1.0180   -11.2690 hc         1 9BT       0.042700
     55 H21         -3.3010    -1.9500   -12.5300 hc         1 9BT       0.042700
     56 H22         -3.1770    -0.1910   -12.6700 hc         1 9BT       0.042700
     57 H23         -0.9160     0.8620   -13.0130 hc         1 9BT       0.042700
     58 H24         -0.2220    -0.0680   -11.6770 hc         1 9BT       0.042700
     59 H25          0.4990    -0.1630   -13.2900 hc         1 9BT       0.042700
     60 H26         -2.4390    -1.9280   -14.8020 hc         1 9BT       0.042700
     61 H27         -1.8630    -0.2600   -14.9240 hc         1 9BT       0.042700
     62 H28         -0.7270    -1.6040   -15.1080 hc         1 9BT       0.042700
     63 H29         -2.1400    -4.0290   -12.1280 hn         1 9BT       0.331500
     64 H30         -2.3760    -6.2090   -13.6710 h1         1 9BT       0.039200
     65 H31         -3.6450    -5.0650   -14.1290 h1         1 9BT       0.039200
     66 H32         -3.0780    -6.5870   -15.8150 ho         1 9BT       0.404000
@<TRIPOS>BOND
     1     3     4 2
     2     3     2 1
     3     4     5 1
     4     1     2 1
     5     2     6 2
     6     5     6 1
     7     6     7 1
     8     7     8 ar
     9     7    10 ar
    10     8     9 ar
    11    10    11 ar
    12     9    12 ar
    13    11    12 ar
    14    12    13 1
    15    13    14 1
    16    14    15 1
    17    18    17 1
    18    18    19 1
    19    15    16 2
    20    15    17 1
    21    17    22 1
    22    19    20 1
    23    19    21 1
    24    22    21 1
    25    22    23 1
    26    24    23 2
    27    23    25 1
    28    29    26 1
    29    25    26 1
    30    25    30 1
    31    27    26 1
    32    26    28 1
    33    30    31 1
    34    31    32 2
    35    31    33 1
    36    33    34 1
    37     1    35 1
    38     1    36 1
    39     1    37 1
    40     4    38 1
    41     8    39 1
    42     9    40 1
    43    10    41 1
    44    11    42 1
    45    13    43 1
    46    13    44 1
    47    14    45 1
    48    17    46 1
    49    18    47 1
    50    18    48 1
    51    19    49 1
    52    20    50 1
    53    21    51 1
    54    21    52 1
    55    25    53 1
    56    27    54 1
    57    27    55 1
    58    27    56 1
    59    28    57 1
    60    28    58 1
    61    28    59 1
    62    29    60 1
    63    29    61 1
    64    29    62 1
    65    30    63 1
    66    33    64 1
    67    33    65 1
    68    34    66 1
@<TRIPOS>SUBSTRUCTURE
     1 9BT         1 TEMP              0 ****  ****    0 ROOT
