@<TRIPOS>MOLECULE
molecule
   57    57     1     0     0
SMALL
bcc


@<TRIPOS>ATOM
      1 CAD          0.0000     0.0000     0.0000 c3         1 9BU      -0.082600
      2 CBB          1.5300     0.0000     0.0000 c3         1 9BU      -0.115700
      3 CAE          2.0410     0.0000     1.4420 c3         1 9BU      -0.082600
      4 CAU          2.0320    -1.2300    -0.7120 c          1 9BU       0.626100
      5 OAG          2.7270    -2.0260    -0.1250 o          1 9BU      -0.562000
      6 OAR          1.7080    -1.4410    -1.9960 os         1 9BU      -0.381900
      7 CAN          2.2270    -2.6470    -2.6180 c3         1 9BU       0.152600
      8 CAL          1.7620    -2.7140    -4.0500 c2         1 9BU      -0.483200
      9 CAS          1.2910    -3.8360    -4.5330 c2         1 9BU       0.079600
     10 CAA          1.3330    -5.0920    -3.7000 c3         1 9BU      -0.140900
     11 CAO          0.7040    -3.8710    -5.9210 c3         1 9BU      -0.048200
     12 CAP          1.7770    -4.3190    -6.9160 c3         1 9BU      -0.032200
     13 CAT          1.1910    -4.3550    -8.3040 c2         1 9BU      -0.129400
     14 CAB          0.4470    -5.5770    -8.7770 c3         1 9BU      -0.055900
     15 CAM          1.3280    -3.3220    -9.0990 c2         1 9BU      -0.161200
     16 CAQ          0.8150    -3.3890   -10.5140 c3         1 9BU       0.011100
     17 CBA         -0.1650    -2.2680   -10.7470 ca         1 9BU      -0.138300
     18 CAX          0.2810    -1.0430   -11.2120 ca         1 9BU       0.202100
     19 OAI          1.6010    -0.8480   -11.4600 oh         1 9BU      -0.494100
     20 CAZ         -0.6410    -0.0030   -11.4260 ca         1 9BU      -0.247600
     21 CAK         -0.1810     1.2970   -11.9180 c          1 9BU       0.581500
     22 OAF          0.9980     1.4800   -12.1430 o          1 9BU      -0.514100
     23 CAV         -2.0010    -0.2180   -11.1670 ca         1 9BU       0.004700
     24 CAC         -2.9960     0.8920   -11.3950 c3         1 9BU      -0.065800
     25 CAY         -2.4270    -1.4310   -10.7090 ca         1 9BU      -0.068600
     26 ClA         -4.1130    -1.6900   -10.3900 cl         1 9BU      -0.097400
     27 CAW         -1.5160    -2.4640   -10.5010 ca         1 9BU       0.180100
     28 OAH         -1.9510    -3.6660   -10.0450 oh         1 9BU      -0.493100
     29 H1          -0.3610     0.1830    -1.0050 hc         1 9BU       0.045367
     30 H2          -0.3610     0.7790     0.6610 hc         1 9BU       0.045367
     31 H3          -0.3610    -0.9620     0.3440 hc         1 9BU       0.045367
     32 H4           1.8910     0.8850    -0.5100 hc         1 9BU       0.077700
     33 H5           1.6960     0.8950     1.9470 hc         1 9BU       0.045367
     34 H6           1.6630    -0.8740     1.9590 hc         1 9BU       0.045367
     35 H7           3.1240    -0.0200     1.4420 hc         1 9BU       0.045367
     36 H8           1.8660    -3.5150    -2.0790 h1         1 9BU       0.030700
     37 H9           3.3100    -2.6290    -2.5900 h1         1 9BU       0.030700
     38 H10          2.7520    -3.0420    -3.7550 ha         1 9BU       0.300000
     39 H11          0.7190    -4.9600    -2.8170 hc         1 9BU       0.056700
     40 H12          2.3550    -5.2930    -3.4030 hc         1 9BU       0.056700
     41 H13          0.9550    -5.9240    -4.2820 hc         1 9BU       0.056700
     42 H14          0.3530    -2.8830    -6.1890 hc         1 9BU       0.072200
     43 H15         -0.1250    -4.5680    -5.9450 hc         1 9BU       0.072200
     44 H16          2.6050    -3.6210    -6.8920 hc         1 9BU       0.050200
     45 H17          2.1290    -5.3070    -6.6470 hc         1 9BU       0.050200
     46 H18         -0.6110    -5.3520    -8.8470 hc         1 9BU       0.043033
     47 H19          0.5980    -6.3870    -8.0730 hc         1 9BU       0.043033
     48 H20          0.8180    -5.8720    -9.7510 hc         1 9BU       0.043033
     49 H21          1.8620    -2.4440    -8.7580 ha         1 9BU       0.141000
     50 H22          0.3200    -4.3400   -10.6750 hc         1 9BU       0.060700
     51 H23          1.6440    -3.2930   -11.2040 hc         1 9BU       0.060700
     52 H24          1.7800    -1.0280   -12.3680 ho         1 9BU       0.433000
     53 H25         -0.8940     2.0960   -12.0840 h4         1 9BU       0.003200
     54 H26         -2.9780     1.1850   -12.4380 hc         1 9BU       0.057700
     55 H27         -2.7350     1.7430   -10.7770 hc         1 9BU       0.057700
     56 H28         -3.9890     0.5470   -11.1340 hc         1 9BU       0.057700
     57 H29         -2.7290    -3.9170   -10.5150 ho         1 9BU       0.431000
@<TRIPOS>BOND
     1    14    13 1
     2    28    27 1
     3    11    12 1
     4    11     9 1
     5    13    12 1
     6    13    15 2
     7    26    25 1
     8    27    25 ar
     9    27    17 ar
    10     9     8 2
    11     9    10 1
    12     8     7 1
    13    15    16 1
    14    16    17 1
    15    25    23 ar
    16    17    18 ar
    17     7     6 1
    18    23    24 1
    19    23    20 ar
    20     6     4 1
    21    18    20 ar
    22    18    19 1
    23    20    21 1
    24     4     5 2
    25     4     2 1
    26     3     2 1
    27     2     1 1
    28    21    22 2
    29     1    29 1
    30     1    30 1
    31     1    31 1
    32     2    32 1
    33     3    33 1
    34     3    34 1
    35     3    35 1
    36     7    36 1
    37     7    37 1
    38     8    38 1
    39    10    39 1
    40    10    40 1
    41    10    41 1
    42    11    42 1
    43    11    43 1
    44    12    44 1
    45    12    45 1
    46    14    46 1
    47    14    47 1
    48    14    48 1
    49    15    49 1
    50    16    50 1
    51    16    51 1
    52    19    52 1
    53    21    53 1
    54    24    54 1
    55    24    55 1
    56    24    56 1
    57    28    57 1
@<TRIPOS>SUBSTRUCTURE
     1 9BU         1 TEMP              0 ****  ****    0 ROOT
