@<TRIPOS>MOLECULE
molecule
   19    21     1     0     0
SMALL
bcc


@<TRIPOS>ATOM
      1 C4           0.0000     0.0000     0.0000 ca         1 9BV       0.497600
      2 C7          -2.1020     0.0100     1.2840 cc         1 9BV       0.263800
      3 C6           0.0480     0.0050     2.4760 ca         1 9BV      -0.078000
      4 C9          -2.0410     0.0000    -1.0970 cc         1 9BV       0.428500
      5 C1           1.4070     0.0010     2.4070 ca         1 9BV      -0.136000
      6 C2           2.0750     0.0000     1.1840 ca         1 9BV      -0.076000
      7 C3           1.4060     0.0000     0.0000 ca         1 9BV      -0.189300
      8 C5          -0.7020     0.0050     1.2880 ca         1 9BV      -0.223300
      9 N8          -2.7390     0.0110     0.0820 na         1 9BV      -0.034800
     10 N10         -0.7090     0.0000    -1.1280 nc         1 9BV      -0.663000
     11 N11         -2.9520     0.0040    -2.0690 nd         1 9BV      -0.146000
     12 N12         -4.1350     0.0150    -1.5710 nd         1 9BV       0.050000
     13 N13         -4.0930     0.0150    -0.2820 nc         1 9BV      -0.278400
     14 O14         -2.7990     0.0210     2.4380 oh         1 9BV      -0.476100
     15 HC6         -0.4510     0.0050     3.4380 ha         1 9BV       0.152000
     16 HC1          1.9830     0.0010     3.3240 ha         1 9BV       0.143000
     17 HC2          3.1590    -0.0030     1.1770 ha         1 9BV       0.144000
     18 HC3          1.9520    -0.0010    -0.9360 ha         1 9BV       0.166000
     19 HO14        -3.1960    -0.8240     2.5730 ho         1 9BV       0.456000
@<TRIPOS>BOND
     1     5     6 ar
     2     5     3 ar
     3     6     7 ar
     4     3     8 ar
     5     7     1 ar
     6     8     1 ar
     7     8     2 2
     8     1    10 2
     9    14     2 1
    10     2     9 1
    11    10     4 1
    12     9     4 1
    13     9    13 1
    14     4    11 2
    15    13    12 2
    16    11    12 1
    17     3    15 1
    18     5    16 1
    19     6    17 1
    20     7    18 1
    21    14    19 1
@<TRIPOS>SUBSTRUCTURE
     1 9BV         1 TEMP              0 ****  ****    0 ROOT
