@<TRIPOS>MOLECULE
9BW
   69    72     1     0     0
SMALL
bcc


@<TRIPOS>ATOM
      1 CAN          0.0000     0.0000     0.0000 cx         1 9BW      -0.052900
      2 CAO          1.5300     0.0000     0.0000 cx         1 9BW      -0.052900
      3 CBE          0.7650     0.0000     1.3260 cx         1 9BW      -0.210700
      4 CAX          0.7650     1.2740     2.1290 c          1 9BW       0.611100
      5 OAF          1.3570     2.2500     1.7180 o          1 9BW      -0.664100
      6 NAU          0.1070     1.3320     3.3040 ns         1 9BW      -0.164900
      7 CBG          0.1080     2.5710     4.0840 c3         1 9BW      -0.050300
      8 CBI         -1.0090     3.4900     3.5830 c3         1 9BW      -0.063000
      9 CAD         -2.3450     2.7480     3.6400 c3         1 9BW      -0.021433
     10 CAB         -1.0790     4.7360     4.4680 c3         1 9BW      -0.021433
     11 CAC         -0.7170     3.9060     2.1400 c3         1 9BW      -0.021433
     12 CAY         -0.1220     2.2490     5.5380 c          1 9BW       0.616100
     13 OAG         -0.7930     1.2870     5.8480 o          1 9BW      -0.643100
     14 N            0.4170     3.0300     6.4950 n          1 9BW      -0.116800
     15 CD2          1.3220     4.1700     6.2640 c3         1 9BW       0.005000
     16 CG           2.1180     4.3180     7.5850 c3         1 9BW       0.182100
     17 OD1          3.1970     3.3830     7.6400 oh         1 9BW      -0.572800
     18 CB           1.0340     3.9800     8.6420 c3         1 9BW      -0.052400
     19 CA           0.1940     2.8910     7.9410 c3         1 9BW      -0.033300
     20 C           -1.2660     3.0820     8.2630 c          1 9BW       0.562100
     21 O           -2.0580     3.3040     7.3730 o          1 9BW      -0.630100
     22 NAT         -1.6900     3.0070     9.5410 ns         1 9BW      -0.195900
     23 CAP         -3.1090     3.1940     9.8530 c3         1 9BW       0.111300
     24 CAZ         -3.3170     3.0610    11.3400 ca         1 9BW      -0.124300
     25 CAI         -3.2280     4.1800    12.1500 ca         1 9BW      -0.082000
     26 CAK         -3.4180     4.0650    13.5120 ca         1 9BW      -0.093000
     27 CAJ         -3.6020     1.8240    11.8880 ca         1 9BW      -0.082000
     28 CAL         -3.7940     1.6950    13.2480 ca         1 9BW      -0.093000
     29 CBB         -3.7010     2.8180    14.0710 ca         1 9BW       0.014000
     30 CBC         -3.9060     2.6890    15.5310 cc         1 9BW      -0.055400
     31 SAV         -4.9150     3.7290    16.5340 ss         1 9BW      -0.302300
     32 CAM         -4.5000     2.8130    17.9160 cc         1 9BW       0.464300
     33 NAS         -3.6970     1.8540    17.5970 nd         1 9BW      -0.550000
     34 CBA         -3.3580     1.7490    16.3310 cd         1 9BW       0.330600
     35 CAA         -2.4290     0.6790    15.8180 c3         1 9BW      -0.020400
     36 H1          -0.4670     0.9390    -0.2700 hc         1 9BW       0.051200
     37 H2          -0.4670    -0.9390    -0.2700 hc         1 9BW       0.051200
     38 H3           1.9980     0.9390    -0.2700 hc         1 9BW       0.051200
     39 H4           1.9980    -0.9390    -0.2700 hc         1 9BW       0.051200
     40 H5           0.7650    -0.9480     1.8490 hc         1 9BW       0.062700
     41 H6          -0.3490     0.5160     3.6610 hn         1 9BW       0.198500
     42 H7           1.0630     3.0690     3.9710 h1         1 9BW       0.063700
     43 H8          -3.1350     3.3990     3.2860 hc         1 9BW       0.017367
     44 H9          -2.5520     2.4520     4.6610 hc         1 9BW       0.017367
     45 H10         -2.2960     1.8660     3.0120 hc         1 9BW       0.017367
     46 H11         -1.8740     5.3830     4.1170 hc         1 9BW       0.017367
     47 H12         -0.1360     5.2660     4.4210 hc         1 9BW       0.017367
     48 H13         -1.2790     4.4420     5.4910 hc         1 9BW       0.017367
     49 H14         -0.9210     3.0740     1.4760 hc         1 9BW       0.017367
     50 H15         -1.3470     4.7450     1.8710 hc         1 9BW       0.017367
     51 H16          0.3240     4.1930     2.0500 hc         1 9BW       0.017367
     52 H17          1.9950     3.9550     5.4420 h1         1 9BW       0.043200
     53 H18          0.7510     5.0690     6.0660 h1         1 9BW       0.043200
     54 H19          2.4710     5.3350     7.7090 h1         1 9BW       0.013700
     55 H20          3.9990     3.8380     7.8360 ho         1 9BW       0.394000
     56 H21          1.4890     3.5890     9.5440 hc         1 9BW       0.034700
     57 H22          0.4260     4.8510     8.8570 hc         1 9BW       0.034700
     58 H23          0.5220     1.9110     8.2680 h1         1 9BW       0.054700
     59 H24         -1.0410     2.7910    10.2710 hn         1 9BW       0.176500
     60 H25         -3.6940     2.4420     9.3380 h1         1 9BW       0.032200
     61 H26         -3.4230     4.1800     9.5320 h1         1 9BW       0.032200
     62 H27         -3.0090     5.1470    11.7150 ha         1 9BW       0.111500
     63 H28         -3.3460     4.9410    14.1450 ha         1 9BW       0.117000
     64 H29         -3.6750     0.9530    11.2480 ha         1 9BW       0.111500
     65 H30         -4.0150     0.7250    13.6760 ha         1 9BW       0.117000
     66 H31         -4.8590     3.0100    18.9190 h5         1 9BW       0.025100
     67 H32         -1.8990     0.2320    16.6510 hc         1 9BW       0.016033
     68 H33         -3.0040    -0.0830    15.3050 hc         1 9BW       0.016033
     69 H34         -1.7160     1.1180    15.1310 hc         1 9BW       0.016033
@<TRIPOS>BOND
     1     1     2 1   
     2     1     3 1   
     3     1    36 1   
     4     1    37 1   
     5     2     3 1   
     6     2    38 1   
     7     2    39 1   
     8     3     4 1   
     9     3    40 1   
    10     4     5 2   
    11     4     6 1   
    12     6     7 1   
    13     6    41 1   
    14     7     8 1   
    15     7    12 1   
    16     7    42 1   
    17     8     9 1   
    18     8    10 1   
    19     8    11 1   
    20     9    43 1   
    21     9    44 1   
    22     9    45 1   
    23    10    46 1   
    24    10    47 1   
    25    10    48 1   
    26    11    49 1   
    27    11    50 1   
    28    11    51 1   
    29    12    13 2   
    30    12    14 1   
    31    14    15 1   
    32    14    19 1   
    33    15    16 1   
    34    15    52 1   
    35    15    53 1   
    36    16    17 1   
    37    16    18 1   
    38    16    54 1   
    39    17    55 1   
    40    18    19 1   
    41    18    56 1   
    42    18    57 1   
    43    19    20 1   
    44    19    58 1   
    45    20    21 2   
    46    20    22 1   
    47    22    23 1   
    48    22    59 1   
    49    23    24 1   
    50    23    60 1   
    51    23    61 1   
    52    24    25 ar  
    53    24    27 ar  
    54    25    26 ar  
    55    25    62 1   
    56    26    29 ar  
    57    26    63 1   
    58    27    28 ar  
    59    27    64 1   
    60    28    29 ar  
    61    28    65 1   
    62    29    30 1   
    63    30    31 1   
    64    30    34 2   
    65    31    32 1   
    66    32    33 2   
    67    32    66 1   
    68    33    34 1   
    69    34    35 1   
    70    35    67 1   
    71    35    68 1   
    72    35    69 1   
@<TRIPOS>SUBSTRUCTURE
     1 9BW         1 TEMP              0 ****  ****    0 ROOT
