@<TRIPOS>MOLECULE
molecule
   69    72     1     0     0
SMALL
bcc


@<TRIPOS>ATOM
      1 CAN          0.0000     0.0000     0.0000 cx         1 9BW      -0.110900
      2 CAO          1.5300     0.0000     0.0000 cx         1 9BW      -0.110900
      3 CBE          0.7650     0.0000     1.3260 cx         1 9BW      -0.231700
      4 CAX          0.7650     1.2740     2.1290 c          1 9BW       0.695100
      5 OAF          1.3570     2.2500     1.7180 o          1 9BW      -0.623100
      6 NAU          0.1070     1.3320     3.3040 ns         1 9BW      -0.562900
      7 CBG          0.1080     2.5710     4.0840 c3         1 9BW       0.061700
      8 CBI         -1.0090     3.4900     3.5830 c3         1 9BW      -0.071000
      9 CAD         -2.3450     2.7480     3.6400 c3         1 9BW      -0.089767
     10 CAB         -1.0790     4.7360     4.4680 c3         1 9BW      -0.089767
     11 CAC         -0.7170     3.9060     2.1400 c3         1 9BW      -0.089767
     12 CAY         -0.1220     2.2490     5.5380 c          1 9BW       0.691100
     13 OAG         -0.7930     1.2870     5.8480 o          1 9BW      -0.602100
     14 N            0.4170     3.0300     6.4950 n          1 9BW      -0.468800
     15 CD2          1.3220     4.1700     6.2640 c3         1 9BW       0.080000
     16 CG           2.1180     4.3180     7.5850 c3         1 9BW       0.129100
     17 OD1          3.1970     3.3830     7.6400 oh         1 9BW      -0.589800
     18 CB           1.0340     3.9800     8.6420 c3         1 9BW      -0.105400
     19 CA           0.1940     2.8910     7.9410 c3         1 9BW       0.048700
     20 C           -1.2660     3.0820     8.2630 c          1 9BW       0.647100
     21 O           -2.0580     3.3040     7.3730 o          1 9BW      -0.589100
     22 NAT         -1.6900     3.0070     9.5410 ns         1 9BW      -0.586900
     23 CAP         -3.1090     3.1940     9.8530 c3         1 9BW       0.161300
     24 CAZ         -3.3170     3.0610    11.3400 ca         1 9BW      -0.115300
     25 CAI         -3.2280     4.1800    12.1500 ca         1 9BW      -0.112000
     26 CAK         -3.4180     4.0650    13.5120 ca         1 9BW      -0.117000
     27 CAJ         -3.6020     1.8240    11.8880 ca         1 9BW      -0.112000
     28 CAL         -3.7940     1.6950    13.2480 ca         1 9BW      -0.117000
     29 CBB         -3.7010     2.8180    14.0710 ca         1 9BW       0.004000
     30 CBC         -3.9060     2.6890    15.5310 cc         1 9BW      -0.104400
     31 SAV         -4.9150     3.7290    16.5340 ss         1 9BW      -0.198300
     32 CAM         -4.5000     2.8130    17.9160 cd         1 9BW       0.440300
     33 NAS         -3.6970     1.8540    17.5970 nc         1 9BW      -0.674000
     34 CBA         -3.3580     1.7490    16.3310 cc         1 9BW       0.381600
     35 CAA         -2.4290     0.6790    15.8180 c3         1 9BW      -0.117400
     36 H1          -0.4670     0.9390    -0.2700 hc         1 9BW       0.083200
     37 H2          -0.4670    -0.9390    -0.2700 hc         1 9BW       0.083200
     38 H3           1.9980     0.9390    -0.2700 hc         1 9BW       0.083200
     39 H4           1.9980    -0.9390    -0.2700 hc         1 9BW       0.083200
     40 H5           0.7650    -0.9480     1.8490 hc         1 9BW       0.088700
     41 H6          -0.3490     0.5160     3.6610 hn         1 9BW       0.337500
     42 H7           1.0630     3.0690     3.9710 h1         1 9BW       0.082700
     43 H8          -3.1350     3.3990     3.2860 hc         1 9BW       0.042700
     44 H9          -2.5520     2.4520     4.6610 hc         1 9BW       0.042700
     45 H10         -2.2960     1.8660     3.0120 hc         1 9BW       0.042700
     46 H11         -1.8740     5.3830     4.1170 hc         1 9BW       0.042700
     47 H12         -0.1360     5.2660     4.4210 hc         1 9BW       0.042700
     48 H13         -1.2790     4.4420     5.4910 hc         1 9BW       0.042700
     49 H14         -0.9210     3.0740     1.4760 hc         1 9BW       0.042700
     50 H15         -1.3470     4.7450     1.8710 hc         1 9BW       0.042700
     51 H16          0.3240     4.1930     2.0500 hc         1 9BW       0.042700
     52 H17          1.9950     3.9550     5.4420 h1         1 9BW       0.066200
     53 H18          0.7510     5.0690     6.0660 h1         1 9BW       0.066200
     54 H19          2.4710     5.3350     7.7090 h1         1 9BW       0.050700
     55 H20          3.9990     3.8380     7.8360 ho         1 9BW       0.406000
     56 H21          1.4890     3.5890     9.5440 hc         1 9BW       0.066200
     57 H22          0.4260     4.8510     8.8570 hc         1 9BW       0.066200
     58 H23          0.5220     1.9110     8.2680 h1         1 9BW       0.086700
     59 H24         -1.0410     2.7910    10.2710 hn         1 9BW       0.315500
     60 H25         -3.6940     2.4420     9.3380 h1         1 9BW       0.061200
     61 H26         -3.4230     4.1800     9.5320 h1         1 9BW       0.061200
     62 H27         -3.0090     5.1470    11.7150 ha         1 9BW       0.139000
     63 H28         -3.3460     4.9410    14.1450 ha         1 9BW       0.140500
     64 H29         -3.6750     0.9530    11.2480 ha         1 9BW       0.139000
     65 H30         -4.0150     0.7250    13.6760 ha         1 9BW       0.140500
     66 H31         -4.8590     3.0100    18.9190 h5         1 9BW       0.062100
     67 H32         -1.8990     0.2320    16.6510 hc         1 9BW       0.052367
     68 H33         -3.0040    -0.0830    15.3050 hc         1 9BW       0.052367
     69 H34         -1.7160     1.1180    15.1310 hc         1 9BW       0.052367
@<TRIPOS>BOND
     1    33    32 2
     2    33    34 1
     3    32    31 1
     4    35    34 1
     5    34    30 2
     6    31    30 1
     7    30    29 1
     8    29    28 ar
     9    29    26 ar
    10    28    27 ar
    11    26    25 ar
    12    27    24 ar
    13    25    24 ar
    14    24    23 1
    15    23    22 1
    16    22    20 1
    17    18    19 1
    18    18    16 1
    19    20    21 2
    20    20    19 1
    21    19    14 1
    22    16    17 1
    23    16    15 1
    24    14    15 1
    25    14    12 1
    26    13    12 2
    27    12     7 1
    28    10     8 1
    29     7     8 1
    30     7     6 1
    31    11     8 1
    32     8     9 1
    33     6     4 1
    34     4     5 2
    35     4     3 1
    36     3     2 1
    37     3     1 1
    38     2     1 1
    39     1    36 1
    40     1    37 1
    41     2    38 1
    42     2    39 1
    43     3    40 1
    44     6    41 1
    45     7    42 1
    46     9    43 1
    47     9    44 1
    48     9    45 1
    49    10    46 1
    50    10    47 1
    51    10    48 1
    52    11    49 1
    53    11    50 1
    54    11    51 1
    55    15    52 1
    56    15    53 1
    57    16    54 1
    58    17    55 1
    59    18    56 1
    60    18    57 1
    61    19    58 1
    62    22    59 1
    63    23    60 1
    64    23    61 1
    65    25    62 1
    66    26    63 1
    67    27    64 1
    68    28    65 1
    69    32    66 1
    70    35    67 1
    71    35    68 1
    72    35    69 1
@<TRIPOS>SUBSTRUCTURE
     1 9BW         1 TEMP              0 ****  ****    0 ROOT
