@<TRIPOS>MOLECULE
molecule
   58    58     1     0     0
SMALL
bcc


@<TRIPOS>ATOM
      1 CAU          0.0000     0.0000     0.0000 c3         1 9BX      -0.113100
      2 CAT          1.5300     0.0000     0.0000 c3         1 9BX       0.055800
      3 CAW          2.0400     0.0000     1.4420 c3         1 9BX      -0.113100
      4 OAV          2.0070    -1.1660    -0.6740 oh         1 9BX      -0.603800
      5 CAS          2.0320     1.2310    -0.7100 c          1 9BX       0.585300
      6 OAX          1.3750     2.2530    -0.6930 o          1 9BX      -0.530100
      7 CAR          3.2620     1.1970    -1.3940 ce         1 9BX      -0.224200
      8 CAQ          3.7130     2.3050    -2.0340 cf         1 9BX      -0.129000
      9 CAO          4.9910     2.2690    -2.7430 cf         1 9BX       0.042800
     10 CAP          5.8660     1.0460    -2.6570 c3         1 9BX      -0.059900
     11 CAN          5.3810     3.3210    -3.4680 c2         1 9BX      -0.451200
     12 CAM          4.6030     4.6100    -3.4060 c3         1 9BX      -0.091200
     13 CAL          5.5530     5.7650    -3.0820 c3         1 9BX      -0.082200
     14 CAJ          4.7750     7.0540    -3.0190 c2         1 9BX       0.019600
     15 CAK          4.5400     7.8540    -4.2750 c3         1 9BX      -0.054900
     16 CAI          4.3030     7.4790    -1.8730 c2         1 9BX      -0.492200
     17 CAH          4.4170     6.6150    -0.6440 c3         1 9BX      -0.039900
     18 CAG          5.1410     7.3740     0.4390 ca         1 9BX      -0.179300
     19 CAY          6.5190     7.3000     0.5340 ca         1 9BX       0.197100
     20 OAZ          7.2240     6.5440    -0.3440 oh         1 9BX      -0.503100
     21 CBA          7.1850     8.0120     1.5480 ca         1 9BX      -0.278600
     22 CBB          8.6440     7.9410     1.6600 c          1 9BX       0.591500
     23 OBC          9.2880     7.3450     0.8220 o          1 9BX      -0.538100
     24 CAB          6.4460     8.7890     2.4500 ca         1 9BX       0.020700
     25 CAA          7.1530     9.5550     3.5390 c3         1 9BX      -0.067800
     26 CAC          5.0870     8.8540     2.3430 ca         1 9BX      -0.079600
     27 ClA          4.1780     9.8200     3.4620 cl         1 9BX      -0.092400
     28 CAE          4.4240     8.1530     1.3360 ca         1 9BX       0.220100
     29 OAF          3.0740     8.2300     1.2370 oh         1 9BX      -0.483100
     30 H1          -0.3610     0.0360    -1.0210 hc         1 9BX       0.049700
     31 H2          -0.3610    -0.9020     0.4790 hc         1 9BX       0.049700
     32 H3          -0.3610     0.8660     0.5410 hc         1 9BX       0.049700
     33 H4           3.1190    -0.1020     1.4440 hc         1 9BX       0.049700
     34 H5           1.5980    -0.8290     1.9810 hc         1 9BX       0.049700
     35 H6           1.7640     0.9310     1.9230 hc         1 9BX       0.049700
     36 H7           1.5520    -1.9260    -0.3480 ho         1 9BX       0.411000
     37 H8           3.8480     0.2860    -1.4090 ha         1 9BX       0.156000
     38 H10          3.1270     3.2160    -2.0180 ha         1 9BX       0.158000
     39 H11          6.7900     1.2250    -3.1940 hc         1 9BX       0.058033
     40 H12          5.3510     0.2010    -3.0970 hc         1 9BX       0.058033
     41 H13          6.0880     0.8330    -1.6180 hc         1 9BX       0.058033
     42 H14          4.5080     3.4690    -4.0920 ha         1 9BX       0.315000
     43 H16          3.8450     4.5380    -2.6350 hc         1 9BX       0.039200
     44 H17          4.1280     4.7920    -4.3630 hc         1 9BX       0.039200
     45 H18          6.3100     5.8370    -3.8530 hc         1 9BX       0.073700
     46 H19          6.0280     5.5830    -2.1250 hc         1 9BX       0.073700
     47 H21          4.8020     8.8900    -4.0980 hc         1 9BX       0.052033
     48 H22          3.4950     7.7880    -4.5540 hc         1 9BX       0.052033
     49 H23          5.1530     7.4580    -5.0750 hc         1 9BX       0.052033
     50 H24          5.2080     7.4550    -1.2780 ha         1 9BX       0.328000
     51 H26          4.9700     5.7150    -0.8850 hc         1 9BX       0.085200
     52 H27          3.4260     6.3480    -0.2970 hc         1 9BX       0.085200
     53 H28          7.8680     7.0810    -0.7750 ho         1 9BX       0.452000
     54 H29          9.1460     8.4060     2.5000 h4         1 9BX       0.010200
     55 H30          6.4230    10.0880     4.1370 hc         1 9BX       0.059033
     56 H31          7.7010     8.8650     4.1690 hc         1 9BX       0.059033
     57 H32          7.8420    10.2630     3.0940 hc         1 9BX       0.059033
     58 H33          2.8080     9.1350     1.2560 ho         1 9BX       0.442000
@<TRIPOS>BOND
     1     1     2 1
     2    23    22 2
     3    22    21 1
     4     6     5 2
     5     2     3 1
     6     2     5 1
     7     2     4 1
     8     5     7 1
     9    20    19 1
    10    21    19 ar
    11    21    24 ar
    12    25    24 1
    13    19    18 ar
    14     7     8 2
    15    24    26 ar
    16     8     9 1
    17    18    17 1
    18    18    28 ar
    19    26    28 ar
    20    26    27 1
    21    17    16 1
    22     9    10 1
    23     9    11 2
    24    12    13 1
    25    12    11 1
    26    28    29 1
    27    13    14 1
    28    16    14 2
    29    14    15 1
    30     1    30 1
    31     1    31 1
    32     1    32 1
    33     3    33 1
    34     3    34 1
    35     3    35 1
    36     4    36 1
    37     7    37 1
    38     8    38 1
    39    10    39 1
    40    10    40 1
    41    10    41 1
    42    11    42 1
    43    12    43 1
    44    12    44 1
    45    13    45 1
    46    13    46 1
    47    15    47 1
    48    15    48 1
    49    15    49 1
    50    16    50 1
    51    17    51 1
    52    17    52 1
    53    20    53 1
    54    22    54 1
    55    25    55 1
    56    25    56 1
    57    25    57 1
    58    29    58 1
@<TRIPOS>SUBSTRUCTURE
     1 9BX         1 TEMP              0 ****  ****    0 ROOT
