@<TRIPOS>MOLECULE
molecule
   26    28     1     0     0
SMALL
bcc


@<TRIPOS>ATOM
      1 N3           0.0000     0.0000     0.0000 nc         1 9BY      -0.638000
      2 C4           2.6970    -0.0000    -3.3790 ca         1 9BY      -0.067200
      3 N2           1.6230    -0.0010    -2.5090 na         1 9BY      -0.070300
      4 C7           2.1330    -0.0000    -1.2370 cd         1 9BY       0.393800
      5 C6           5.1120     0.0150    -3.1850 ca         1 9BY      -0.087000
      6 C9          -0.2790    -1.4230    -3.0040 c          1 9BY       0.881600
      7 C1           5.2080     0.0150    -4.5580 ca         1 9BY      -0.163000
      8 C2           4.0650     0.0010    -5.3450 ca         1 9BY      -0.144000
      9 C3           2.8150    -0.0010    -4.7610 ca         1 9BY      -0.099000
     10 C5           3.8530     0.0080    -2.5780 ca         1 9BY       0.086400
     11 N1           3.4440     0.0010    -1.2850 nc         1 9BY      -0.637100
     12 O1          -1.5570    -1.6690    -3.3360 o          1 9BY      -0.829800
     13 O2           0.4810    -2.3410    -2.8060 o          1 9BY      -0.829800
     14 C10          1.3280     0.0000     0.0000 cd         1 9BY       0.394000
     15 C11          1.8760     0.0000     1.2360 cc         1 9BY      -0.142400
     16 S1           0.5620     0.0010     2.4090 ss         1 9BY      -0.292300
     17 C12         -0.5870    -0.0000     1.1440 cd         1 9BY       0.455300
     18 H1           6.0080     0.0260    -2.5780 ha         1 9BY       0.122000
     19 H2          -0.3660     0.5090    -2.1110 h1         1 9BY       0.065700
     20 H3           0.0790     0.5100    -3.8240 h1         1 9BY       0.065700
     21 H4           6.1840     0.0160    -5.0280 ha         1 9BY       0.111000
     22 H5           4.1550     0.0010    -6.4240 ha         1 9BY       0.115000
     23 H6           1.9270    -0.0120    -5.3810 ha         1 9BY       0.134000
     24 H8           2.9350     0.0000     1.4650 h4         1 9BY       0.195000
     25 H9          -1.6610     0.0000     1.2860 h5         1 9BY       0.060100
     26 C8           0.2060    -0.0010    -2.8770 c3         1 9BY      -0.081700
@<TRIPOS>BOND
     1    16    15 1
     2    16    17 1
     3    15    14 2
     4    17     1 2
     5    14     1 1
     6    14     4 1
     7    11     4 2
     8    11    10 1
     9     4     3 1
    10    10     5 ar
    11    10     2 ar
    12     3    26 1
    13     3     2 1
    14     5     7 ar
    15    13     6 1
    16    26     6 1
    17     2     9 ar
    18     6    12 1
    19     7     8 ar
    20     9     8 ar
    21     5    18 1
    22    26    19 1
    23    26    20 1
    24     7    21 1
    25     8    22 1
    26     9    23 1
    27    15    24 1
    28    17    25 1
@<TRIPOS>SUBSTRUCTURE
     1 9BY         1 TEMP              0 ****  ****    0 ROOT
