@<TRIPOS>MOLECULE
molecule
   29    30     1     0     0
SMALL
bcc


@<TRIPOS>ATOM
      1 O11          0.0000     0.0000     0.0000 o          1 9BZ      -0.823300
      2 C09          1.2080     0.0000     0.0000 c          1 9BZ       0.896600
      3 O10          1.8780     0.0000     1.1620 o          1 9BZ      -0.823300
      4 C08          1.9610    -0.0070    -1.3050 c3         1 9BZ       0.061500
      5 N07          1.0620    -0.4520    -2.3660 n3         1 9BZ      -0.688600
      6 C03          1.4970    -1.7650    -2.8880 c3         1 9BZ       0.326600
      7 C02          0.4310    -2.8270    -2.6040 c3         1 9BZ       0.064700
      8 S01         -1.1230    -2.3550    -3.4120 sh         1 9BZ      -0.380900
      9 S04          1.6920    -1.5250    -4.6950 ss         1 9BZ      -0.452200
     10 C05          1.7540     0.3140    -4.6060 c3         1 9BZ       0.014700
     11 C06          0.7860     0.5470    -3.4160 c3         1 9BZ       0.313600
     12 S13          1.2260     2.1430    -2.6180 ss         1 9BZ      -0.398200
     13 C12          2.5370     1.4060    -1.5560 c3         1 9BZ       0.075100
     14 C15          2.6820     2.1800    -0.2440 c3         1 9BZ      -0.075600
     15 C14          3.8720     1.3320    -2.3000 c3         1 9BZ      -0.075600
     16 H2           2.7840    -0.7070    -1.2340 h1         1 9BZ       0.046700
     17 H4           2.4440    -2.0480    -2.4440 h2         1 9BZ       0.077700
     18 H5           0.2740    -2.9040    -1.5350 h1         1 9BZ       0.065700
     19 H6           0.7630    -3.7830    -2.9900 h1         1 9BZ       0.065700
     20 H7          -2.0100    -3.3320    -3.2720 hs         1 9BZ       0.173800
     21 H8           1.3730     0.7640    -5.5150 h1         1 9BZ       0.076200
     22 H9           2.7530     0.6620    -4.3730 h1         1 9BZ       0.076200
     23 H10         -0.2510     0.5270    -3.7280 h2         1 9BZ       0.118700
     24 H11          3.3050     1.6170     0.4400 hc         1 9BZ       0.044367
     25 H12          1.7040     2.3290     0.1970 hc         1 9BZ       0.044367
     26 H13          3.1400     3.1420    -0.4410 hc         1 9BZ       0.044367
     27 H14          4.6850     1.3450    -1.5840 hc         1 9BZ       0.044367
     28 H15          3.9140     0.4170    -2.8770 hc         1 9BZ       0.044367
     29 H16          3.9620     2.1830    -2.9640 hc         1 9BZ       0.044367
@<TRIPOS>BOND
     1    15    13 1
     2    14    13 1
     3    13    12 1
     4    13     4 1
     5     1     2 1
     6    12    11 1
     7     4     2 1
     8     4     5 1
     9     2     3 1
    10     5    11 1
    11     5     6 1
    12    11    10 1
    13    10     9 1
    14     6     9 1
    15     6     7 1
    16     7     8 1
    17     4    16 1
    18     6    17 1
    19     7    18 1
    20     7    19 1
    21     8    20 1
    22    10    21 1
    23    10    22 1
    24    11    23 1
    25    14    24 1
    26    14    25 1
    27    14    26 1
    28    15    27 1
    29    15    28 1
    30    15    29 1
@<TRIPOS>SUBSTRUCTURE
     1 9BZ         1 TEMP              0 ****  ****    0 ROOT
