@<TRIPOS>MOLECULE
9BZ
   29    30     1     0     0
SMALL
bcc


@<TRIPOS>ATOM
      1 O11          0.0000     0.0000     0.0000 o          1 9BZ      -0.869300
      2 C09          1.2080     0.0000     0.0000 c          1 9BZ       0.976600
      3 O10          1.8780     0.0000     1.1620 o          1 9BZ      -0.869300
      4 C08          1.9610    -0.0070    -1.3050 c3         1 9BZ      -0.003500
      5 N07          1.0620    -0.4520    -2.3660 n3         1 9BZ      -0.471600
      6 C03          1.4970    -1.7650    -2.8880 c3         1 9BZ       0.284600
      7 C02          0.4310    -2.8270    -2.6040 c3         1 9BZ       0.134700
      8 S01         -1.1230    -2.3550    -3.4120 sh         1 9BZ      -0.392900
      9 S04          1.6920    -1.5250    -4.6950 ss         1 9BZ      -0.470200
     10 C05          1.7540     0.3140    -4.6060 c3         1 9BZ       0.068700
     11 C06          0.7860     0.5470    -3.4160 c3         1 9BZ       0.275600
     12 S13          1.2260     2.1430    -2.6180 ss         1 9BZ      -0.437200
     13 C12          2.5370     1.4060    -1.5560 c3         1 9BZ       0.102100
     14 C15          2.6820     2.1800    -0.2440 c3         1 9BZ      -0.004100
     15 C14          3.8720     1.3320    -2.3000 c3         1 9BZ      -0.004100
     16 H2           2.7840    -0.7070    -1.2340 h1         1 9BZ       0.035700
     17 H4           2.4440    -2.0480    -2.4440 h2         1 9BZ       0.062700
     18 H5           0.2740    -2.9040    -1.5350 h1         1 9BZ       0.041200
     19 H6           0.7630    -3.7830    -2.9900 h1         1 9BZ       0.041200
     20 H7          -2.0100    -3.3320    -3.2720 hs         1 9BZ       0.159800
     21 H8           1.3730     0.7640    -5.5150 h1         1 9BZ       0.060700
     22 H9           2.7530     0.6620    -4.3730 h1         1 9BZ       0.060700
     23 H10         -0.2510     0.5270    -3.7280 h2         1 9BZ       0.097700
     24 H11          3.3050     1.6170     0.4400 hc         1 9BZ       0.020200
     25 H12          1.7040     2.3290     0.1970 hc         1 9BZ       0.020200
     26 H13          3.1400     3.1420    -0.4410 hc         1 9BZ       0.020200
     27 H14          4.6850     1.3450    -1.5840 hc         1 9BZ       0.020200
     28 H15          3.9140     0.4170    -2.8770 hc         1 9BZ       0.020200
     29 H16          3.9620     2.1830    -2.9640 hc         1 9BZ       0.020200
@<TRIPOS>BOND
     1     1     2 1   
     2     2     3 1   
     3     2     4 1   
     4     4     5 1   
     5     4    13 1   
     6     4    16 1   
     7     5     6 1   
     8     5    11 1   
     9     6     7 1   
    10     6     9 1   
    11     6    17 1   
    12     7     8 1   
    13     7    18 1   
    14     7    19 1   
    15     8    20 1   
    16     9    10 1   
    17    10    11 1   
    18    10    21 1   
    19    10    22 1   
    20    11    12 1   
    21    11    23 1   
    22    12    13 1   
    23    13    14 1   
    24    13    15 1   
    25    14    24 1   
    26    14    25 1   
    27    14    26 1   
    28    15    27 1   
    29    15    28 1   
    30    15    29 1   
@<TRIPOS>SUBSTRUCTURE
     1 9BZ         1 TEMP              0 ****  ****    0 ROOT
