@<TRIPOS>MOLECULE
molecule
   42    44     1     0     0
SMALL
bcc


@<TRIPOS>ATOM
      1 C4           0.0000     0.0000     0.0000 ca         1 9C0      -0.130500
      2 C5           0.0060    -0.0070     2.4020 ca         1 9C0      -0.032000
      3 C6           1.3840     0.0000     0.0000 ca         1 9C0      -0.060300
      4 C7          -1.3550     1.0350     5.7480 cc         1 9C0      -0.207000
      5 C8          -0.6470     1.0700     4.5400 cc         1 9C0      -0.064000
      6 C10         -0.7310    -0.0090     3.6860 cd         1 9C0      -0.053000
      7 C13         -3.7680    -2.9460     4.6680 c3         1 9C0      -0.278600
      8 C17          2.1330     0.0010    -1.3070 c3         1 9C0      -0.025700
      9 C1           1.4010    -0.0010     2.3950 ca         1 9C0      -0.092500
     10 C2          -0.6920    -0.0010     1.1940 ca         1 9C0      -0.092500
     11 C3           2.0810     0.0000     1.1940 ca         1 9C0      -0.130500
     12 C9          -2.0970    -0.0360     6.0810 cd         1 9C0      -0.043300
     13 C11         -1.5650    -1.1670     4.0690 cd         1 9C0       0.239700
     14 C12         -3.0120    -2.2470     5.7980 c3         1 9C0       0.049300
     15 C14          1.1360     0.0010    -2.4680 c3         1 9C0      -0.081100
     16 C16          3.0120     1.2510    -1.3910 c3         1 9C0      -0.081100
     17 N18         -1.6370    -2.1380     3.1910 ne         1 9C0      -0.505600
     18 N19         -2.2060    -1.1410     5.2750 na         1 9C0      -0.140100
     19 S22         -2.5290    -3.5060     3.4570 sy         1 9C0       1.331400
     20 H1          -0.5410     0.0050    -0.9390 ha         1 9C0       0.136000
     21 H2          -1.2970     1.8770     6.4270 ha         1 9C0       0.152000
     22 H3          -0.0510     1.9350     4.2760 ha         1 9C0       0.154000
     23 H4          -4.4520    -2.2500     4.1990 h1         1 9C0       0.110200
     24 H5          -4.3100    -3.7980     5.0600 h1         1 9C0       0.110200
     25 H6           3.8130    -1.1750    -0.6640 hc         1 9C0       0.037033
     26 H7           2.4150    -2.1260    -1.1830 hc         1 9C0       0.037033
     27 H8           3.4360    -1.3260    -2.3860 hc         1 9C0       0.037033
     28 H9           1.9490    -0.0010     3.3290 ha         1 9C0       0.133000
     29 H10         -1.7750    -0.0010     1.1940 ha         1 9C0       0.133000
     30 H11          3.1650     0.0020     1.1870 ha         1 9C0       0.136000
     31 H12         -2.6300    -0.0260     7.0240 h4         1 9C0       0.158000
     32 H13         -3.7250    -1.8590     6.5150 h1         1 9C0       0.076200
     33 H14         -2.3610    -2.9630     6.2860 h1         1 9C0       0.076200
     34 H15          1.6750     0.0010    -3.4070 hc         1 9C0       0.037033
     35 H16          0.5120    -0.8830    -2.4090 hc         1 9C0       0.037033
     36 H17          0.5140     0.8860    -2.4090 hc         1 9C0       0.037033
     37 H18          3.4330     1.3310    -2.3860 hc         1 9C0       0.037033
     38 H19          2.4130     2.1290    -1.1810 hc         1 9C0       0.037033
     39 H20          3.8130     1.1790    -0.6650 hc         1 9C0       0.037033
     40 O20         -3.1400    -3.7840     2.2040 o          1 9C0      -0.615300
     41 C15          3.0130    -1.2480    -1.3910 c3         1 9C0      -0.081100
     42 O21         -1.6170    -4.4190     4.0520 o          1 9C0      -0.615300
@<TRIPOS>BOND
     1    41     8 1
     2    16     8 1
     3    15     8 1
     4     8     3 1
     5     3    11 ar
     6     3     1 ar
     7    11     9 ar
     8     1    10 ar
     9     9     2 ar
    10    10     2 ar
    11     2     6 1
    12    42    19 2
    13    17    19 1
    14    17    13 2
    15    40    19 2
    16    19     7 1
    17     6    13 1
    18     6     5 2
    19    13    18 1
    20     5     4 1
    21     7    14 1
    22    18    14 1
    23    18    12 1
    24     4    12 2
    25     1    20 1
    26     4    21 1
    27     5    22 1
    28     7    23 1
    29     7    24 1
    30    41    25 1
    31    41    26 1
    32    41    27 1
    33     9    28 1
    34    10    29 1
    35    11    30 1
    36    12    31 1
    37    14    32 1
    38    14    33 1
    39    15    34 1
    40    15    35 1
    41    15    36 1
    42    16    37 1
    43    16    38 1
    44    16    39 1
@<TRIPOS>SUBSTRUCTURE
     1 9C0         1 TEMP              0 ****  ****    0 ROOT
