@<TRIPOS>MOLECULE
9C1
   34    36     1     0     0
SMALL
bcc


@<TRIPOS>ATOM
      1 C10          0.0000     0.0000     0.0000 c2         1 9C1      -0.189000
      2 C11          1.3300     0.0000     0.0000 c2         1 9C1      -0.032000
      3 C12          2.0830     0.0000     1.3050 DU         1 9C1      -0.017000
      4 C15         -4.2060     0.6090    -2.3310 c3         1 9C1       0.052000
      5 C17         -4.9890     0.5330    -3.6450 c3         1 9C1       0.026000
      6 O14         -0.1280     0.0000    -2.3270 o          1 9C1      -0.404000
      7 C03         -5.0580    -0.9260    -4.1050 c3         1 9C1       0.064000
      8 O04         -3.7340    -1.4410    -4.2520 os         1 9C1      -0.268000
      9 C05         -2.9690    -1.4380    -3.0450 c3         1 9C1       0.208000
     10 C07         -2.8170    -0.0010    -2.5420 c3         1 9C1      -0.105000
     11 N08         -2.0840    -0.0000    -1.2730 n7         1 9C1      -0.014000
     12 C09         -0.7360     0.0000    -1.2740 c3         1 9C1       0.360000
     13 Cl13         3.2290    -1.3920     1.3370 cl         1 9C1      -0.068000
     14 O18         -6.3130     1.0330    -3.4400 oh         1 9C1      -0.312000
     15 H1          -0.1460    -0.8750    -0.6220 DU         1 9C1       0.033000
     16 H2           1.4760    -0.8750     0.6220 DU         1 9C1       0.043000
     17 H3           1.3830    -0.0900     2.1260 ha         1 9C1       0.075500
     18 H4           2.6370     0.9260     1.4020 ha         1 9C1       0.075500
     19 H5          -4.7310     0.0510    -1.5650 h1         1 9C1       0.051000
     20 H6          -4.4860     1.1250    -4.3990 h1         1 9C1       0.071000
     21 H7          -6.4460    -2.4220    -6.6240 ho         1 9C1       0.190000
     22 H10         -5.5910    -1.5110    -3.3650 h1         1 9C1       0.064000
     23 H11         -3.4800    -2.0280    -2.2940 h2         1 9C1       0.023000
     24 H13         -2.2760     0.5830    -3.2780 h1         1 9C1       0.129000
     25 H14         -2.5840     0.0160    -0.4070 hn         1 9C1       0.089000
     26 H16         -6.3840     1.8970    -3.8110 ho         1 9C1       0.201000
     27 O1          -1.6770    -1.9950    -3.2970 oh         1 9C1      -0.278000
     28 H12         -1.7680    -2.9010    -3.5400 ho         1 9C1       0.197000
     29 O16         -4.0730     1.9750    -1.9320 oh         1 9C1      -0.303000
     30 C02         -5.7890    -1.0040    -5.4470 c3         1 9C1       0.075000
     31 H8          -5.2080    -0.4920    -6.2040 h1         1 9C1       0.038500
     32 O01         -5.9560    -2.3730    -5.8200 oh         1 9C1      -0.312000
     33 H9          -6.7600    -0.5330    -5.3570 h1         1 9C1       0.038500
     34 H15         -4.5840     2.1260    -1.1540 ho         1 9C1       0.196000
@<TRIPOS>BOND
     1     1     2 1   
     2     1    12 1   
     3     1    15 1   
     4     2     3 1   
     5     2    16 1   
     6     3    13 1   
     7     3    16 1   
     8     3    17 1   
     9     3    18 1   
    10     4     5 1   
    11     4    10 1   
    12     4    19 1   
    13     4    29 1   
    14     5     7 1   
    15     5    14 1   
    16     5    20 1   
    17     6    12 1   
    18     7     8 1   
    19     7    22 1   
    20     7    30 1   
    21     8     9 1   
    22     9    10 1   
    23     9    23 1   
    24     9    27 1   
    25    10    11 1   
    26    10    24 1   
    27    11    12 1   
    28    11    25 1   
    29    12    15 1   
    30    14    26 1   
    31    21    32 1   
    32    27    28 1   
    33    29    34 1   
    34    30    31 1   
    35    30    32 1   
    36    30    33 1   
@<TRIPOS>SUBSTRUCTURE
     1 9C1         1 TEMP              0 ****  ****    0 ROOT
