@<TRIPOS>MOLECULE
molecule
   34    34     1     0     0
SMALL
bcc


@<TRIPOS>ATOM
      1 C10          0.0000     0.0000     0.0000 ce         1 9C1      -0.234200
      2 C11          1.3300     0.0000     0.0000 c2         1 9C1      -0.103200
      3 C12          2.0830     0.0000     1.3050 c3         1 9C1       0.073200
      4 C15         -4.2060     0.6090    -2.3310 c3         1 9C1       0.119100
      5 C17         -4.9890     0.5330    -3.6450 c3         1 9C1       0.101100
      6 O14         -0.1280     0.0000    -2.3270 o          1 9C1      -0.578100
      7 C03         -5.0580    -0.9260    -4.1050 c3         1 9C1       0.155100
      8 O04         -3.7340    -1.4410    -4.2520 os         1 9C1      -0.428600
      9 C05         -2.9690    -1.4380    -3.0450 c3         1 9C1       0.333900
     10 C07         -2.8170    -0.0010    -2.5420 c3         1 9C1       0.089700
     11 N08         -2.0840    -0.0000    -1.2730 ns         1 9C1      -0.574900
     12 C09         -0.7360     0.0000    -1.2740 c          1 9C1       0.667300
     13 Cl13         3.2290    -1.3920     1.3370 cl         1 9C1      -0.187400
     14 O18         -6.3130     1.0330    -3.4400 oh         1 9C1      -0.604800
     15 H1          -0.5420     0.0000     0.9380 ha         1 9C1       0.123000
     16 H2           1.8720     0.0000    -0.9380 ha         1 9C1       0.170000
     17 H3           1.3830    -0.0900     2.1260 h1         1 9C1       0.071700
     18 H4           2.6370     0.9260     1.4020 h1         1 9C1       0.071700
     19 H5          -4.7310     0.0510    -1.5650 h1         1 9C1       0.044700
     20 H6          -4.4860     1.1250    -4.3990 h1         1 9C1       0.065700
     21 H7          -6.4920    -2.4240    -6.5940 ho         1 9C1       0.404000
     22 H10         -5.5910    -1.5110    -3.3650 h1         1 9C1       0.058700
     23 H11         -3.4800    -2.0280    -2.2940 h2         1 9C1       0.020700
     24 H13         -2.2760     0.5830    -3.2780 h1         1 9C1       0.116700
     25 H14         -2.5840    -0.0190    -0.4070 hn         1 9C1       0.308500
     26 H16         -6.3900     1.8880    -3.8290 ho         1 9C1       0.415000
     27 O1          -1.6770    -1.9950    -3.2970 oh         1 9C1      -0.554800
     28 H12         -1.7620    -2.9150    -3.4810 ho         1 9C1       0.412000
     29 O16         -4.0730     1.9750    -1.9320 oh         1 9C1      -0.592800
     30 C02         -5.7890    -1.0040    -5.4470 c3         1 9C1       0.151400
     31 H8          -6.7600    -0.5330    -5.3570 h1         1 9C1       0.037700
     32 O01         -5.9560    -2.3730    -5.8200 oh         1 9C1      -0.600800
     33 H9          -5.2080    -0.4920    -6.2040 h1         1 9C1       0.037700
     34 H15         -4.5690     2.1220    -1.1440 ho         1 9C1       0.409000
@<TRIPOS>BOND
     1     1     2 2
     2     1    12 1
     3     2     3 1
     4     4     5 1
     5     4    10 1
     6     4    29 1
     7     5     7 1
     8     5    14 1
     9     6    12 2
    10    32    30 1
    11    30     7 1
    12     7     8 1
    13     8     9 1
    14     9    10 1
    15    10    11 1
    16    11    12 1
    17     3    13 1
    18     1    15 1
    19     2    16 1
    20     3    17 1
    21     3    18 1
    22     4    19 1
    23     5    20 1
    24    32    21 1
    25    30    31 1
    26    30    33 1
    27     7    22 1
    28     9    23 1
    29    10    24 1
    30    11    25 1
    31    29    34 1
    32    14    26 1
    33     9    27 1
    34    27    28 1
@<TRIPOS>SUBSTRUCTURE
     1 9C1         1 TEMP              0 ****  ****    0 ROOT
