@<TRIPOS>MOLECULE
molecule
   28    27     1     0     0
SMALL
bcc


@<TRIPOS>ATOM
      1 O3           0.0000     0.0000     0.0000 oh         1 9C2      -0.578800
      2 C4           1.9390    -1.2490    -0.7220 c3         1 9C2       0.123100
      3 C5           1.4290    -1.2490    -2.1640 c3         1 9C2       0.210400
      4 O4           3.3680    -1.2490    -0.7220 oh         1 9C2      -0.624800
      5 N1           1.6430     2.4260     1.8250 ns         1 9C2      -0.543300
      6 O5           1.8070    -2.4690    -2.8040 os         1 9C2      -0.579200
      7 O6          -0.1630    -2.9420    -4.4800 o          1 9C2      -0.755167
      8 O7           1.9250    -1.7270    -5.2130 o          1 9C2      -0.755167
      9 O8           2.1290    -4.2020    -4.7560 o          1 9C2      -0.755167
     10 P            1.4350    -2.8110    -4.3320 p5         1 9C2       1.196900
     11 C3           1.4300     0.0000     0.0000 c3         1 9C2       0.149100
     12 C2           1.9390     0.0000     1.4420 c3         1 9C2       0.079100
     13 O2           1.5620    -1.2210     2.0810 oh         1 9C2      -0.540800
     14 C1           1.3380     1.1640     2.1870 c          1 9C2       0.619100
     15 O1           0.5810     0.9650     3.1130 o          1 9C2      -0.580100
     16 N            1.0980     3.4810     2.5000 nz         1 9C2      -0.553600
     17 H1          -0.3140     0.6920    -0.5580 ho         1 9C2       0.401000
     18 H2           1.5780    -2.1340    -0.2110 h1         1 9C2       0.072700
     19 H3           1.8600    -0.4120    -2.7000 h1         1 9C2       0.028200
     20 H4           0.3490    -1.1600    -2.1650 h1         1 9C2       0.028200
     21 H5           3.6830    -2.1090    -0.4980 ho         1 9C2       0.416000
     22 H6           2.2900     2.5890     1.0790 hn         1 9C2       0.316500
     23 H9           1.7910     0.8850    -0.5110 h1         1 9C2       0.035700
     24 H10          3.0190     0.0890     1.4440 h1         1 9C2       0.064700
     25 H11          2.2350    -1.4790     2.6890 ho         1 9C2       0.398000
     26 H12          0.1000     3.4360     2.4390 hn         1 9C2       0.375800
     27 H13          1.4190     4.3380     2.0950 hn         1 9C2       0.375800
     28 HN3          1.3750     3.4410     3.4610 hn         1 9C2       0.375800
@<TRIPOS>BOND
     1    15    14 2
     2    16     5 1
     3    14     5 1
     4    14    12 1
     5     4     2 1
     6    13    12 1
     7    11     2 1
     8    11    12 1
     9    11     1 1
    10     2     3 1
    11     8    10 1
    12     3     6 1
    13     6    10 1
    14    10     7 1
    15    10     9 1
    16     1    17 1
    17     2    18 1
    18     3    19 1
    19     3    20 1
    20     4    21 1
    21     5    22 1
    22    11    23 1
    23    12    24 1
    24    13    25 1
    25    16    26 1
    26    16    27 1
    27    28    16 1
@<TRIPOS>SUBSTRUCTURE
     1 9C2         1 TEMP              0 ****  ****    0 ROOT
