@<TRIPOS>MOLECULE
9C3
   40    42     1     0     0
SMALL
bcc


@<TRIPOS>ATOM
      1 C4           0.0000     0.0000     0.0000 ca         1 9C3      -0.183000
      2 C5           0.0070    -0.0060     2.4010 ca         1 9C3      -0.071000
      3 C6           1.3890     0.0000     0.0000 ca         1 9C3       0.162100
      4 C7          -1.3560     1.0390     5.7470 cc         1 9C3      -0.154000
      5 C8          -0.6470     1.0730     4.5380 cc         1 9C3      -0.060000
      6 C10         -0.7300    -0.0060     3.6850 cd         1 9C3      -0.031000
      7 C13         -3.7660    -2.9450     4.6710 c3         1 9C3      -0.075600
      8 C15          2.1580     0.7120    -3.4870 c3         1 9C3      -0.016600
      9 C1           1.4030     0.0000     2.3970 ca         1 9C3      -0.025500
     10 C2          -0.6900    -0.0000     1.1930 ca         1 9C3      -0.025500
     11 C3           2.0870     0.0000     1.1990 ca         1 9C3      -0.183000
     12 C9          -2.0980    -0.0310     6.0790 cd         1 9C3      -0.197300
     13 C11         -1.5670    -1.1640     4.0680 cd         1 9C3       0.072700
     14 C12         -3.0060    -2.2470     5.8000 c3         1 9C3      -0.014700
     15 C14          0.7870    -1.2600    -2.7960 c3         1 9C3      -0.016600
     16 C16          1.2900     0.1210    -2.3730 c3         1 9C3       0.163100
     17 N17         -1.6390    -2.1350     3.1900 ne         1 9C3      -0.381600
     18 N18         -2.2070    -1.1370     5.2740 na         1 9C3       0.300900
     19 O21          2.0660     0.0000    -1.1780 os         1 9C3      -0.303900
     20 S22         -2.5300    -3.5020     3.4560 sy         1 9C3       1.012400
     21 H1          -0.5410     0.0020    -0.9380 ha         1 9C3       0.121500
     22 H2          -1.2980     1.8820     6.4260 ha         1 9C3       0.121000
     23 H3          -0.0500     1.9370     4.2750 ha         1 9C3       0.121000
     24 H4          -4.4530    -2.2500     4.2050 h1         1 9C3       0.080700
     25 H5          -4.3060    -3.7990     5.0640 h1         1 9C3       0.080700
     26 H6           2.5180     1.6870    -3.1850 hc         1 9C3       0.013533
     27 H7           1.5680     0.8090    -4.3900 hc         1 9C3       0.013533
     28 H8           3.0000     0.0570    -3.6740 hc         1 9C3       0.013533
     29 H9           1.9480     0.0000     3.3330 ha         1 9C3       0.104000
     30 H10         -1.7740    -0.0000     1.1930 ha         1 9C3       0.104000
     31 H11          3.1700     0.0020     1.1950 ha         1 9C3       0.121500
     32 H12         -2.6330    -0.0210     7.0210 h4         1 9C3       0.129000
     33 H13         -2.3500    -2.9610     6.2820 h1         1 9C3       0.042700
     34 H14         -3.7170    -1.8620     6.5220 h1         1 9C3       0.042700
     35 H15          1.0400    -1.9870    -2.0340 hc         1 9C3       0.013533
     36 H16          1.2530    -1.5430    -3.7330 hc         1 9C3       0.013533
     37 H17         -0.2890    -1.2300    -2.9230 hc         1 9C3       0.013533
     38 H18          0.4450     0.7730    -2.1900 h1         1 9C3       0.018700
     39 O19         -3.1440    -3.7790     2.2040 o          1 9C3      -0.571300
     40 O20         -1.6160    -4.4160     4.0470 o          1 9C3      -0.571300
@<TRIPOS>BOND
     1     1     3 ar  
     2     1    10 ar  
     3     1    21 1   
     4     2     6 1   
     5     2     9 ar  
     6     2    10 ar  
     7     3    11 ar  
     8     3    19 1   
     9     4     5 1   
    10     4    12 2   
    11     4    22 1   
    12     5     6 2   
    13     5    23 1   
    14     6    13 1   
    15     7    14 1   
    16     7    20 1   
    17     7    24 1   
    18     7    25 1   
    19     8    16 1   
    20     8    26 1   
    21     8    27 1   
    22     8    28 1   
    23     9    11 ar  
    24     9    29 1   
    25    10    30 1   
    26    11    31 1   
    27    12    18 1   
    28    12    32 1   
    29    13    17 2   
    30    13    18 1   
    31    14    18 1   
    32    14    33 1   
    33    14    34 1   
    34    15    16 1   
    35    15    35 1   
    36    15    36 1   
    37    15    37 1   
    38    16    19 1   
    39    16    38 1   
    40    17    20 1   
    41    20    39 2   
    42    20    40 2   
@<TRIPOS>SUBSTRUCTURE
     1 9C3         1 TEMP              0 ****  ****    0 ROOT
