@<TRIPOS>MOLECULE
molecule
   40    42     1     0     0
SMALL
bcc


@<TRIPOS>ATOM
      1 C4           0.0000     0.0000     0.0000 ca         1 9C3      -0.195000
      2 C5           0.0070    -0.0060     2.4010 ca         1 9C3      -0.070000
      3 C6           1.3890     0.0000     0.0000 ca         1 9C3       0.154100
      4 C7          -1.3560     1.0390     5.7470 cc         1 9C3      -0.206000
      5 C8          -0.6470     1.0730     4.5380 cc         1 9C3      -0.067000
      6 C10         -0.7300    -0.0060     3.6850 cd         1 9C3      -0.046000
      7 C13         -3.7660    -2.9450     4.6710 c3         1 9C3      -0.279600
      8 C15          2.1580     0.7120    -3.4870 c3         1 9C3      -0.105600
      9 C1           1.4030     0.0000     2.3970 ca         1 9C3      -0.057000
     10 C2          -0.6900    -0.0000     1.1930 ca         1 9C3      -0.057000
     11 C3           2.0870     0.0000     1.1990 ca         1 9C3      -0.195000
     12 C9          -2.0980    -0.0310     6.0790 cd         1 9C3      -0.044300
     13 C11         -1.5670    -1.1640     4.0680 cd         1 9C3       0.238700
     14 C12         -3.0060    -2.2470     5.8000 c3         1 9C3       0.050300
     15 C14          0.7870    -1.2600    -2.7960 c3         1 9C3      -0.105600
     16 C16          1.2900     0.1210    -2.3730 c3         1 9C3       0.137100
     17 N17         -1.6390    -2.1350     3.1900 ne         1 9C3      -0.506600
     18 N18         -2.2070    -1.1370     5.2740 na         1 9C3      -0.141100
     19 O21          2.0660     0.0000    -1.1780 os         1 9C3      -0.328900
     20 S22         -2.5300    -3.5020     3.4560 sy         1 9C3       1.331400
     21 H1          -0.5410     0.0020    -0.9380 ha         1 9C3       0.142500
     22 H2          -1.2980     1.8820     6.4260 ha         1 9C3       0.152000
     23 H3          -0.0500     1.9370     4.2750 ha         1 9C3       0.154000
     24 H4          -4.4530    -2.2500     4.2050 h1         1 9C3       0.109700
     25 H5          -4.3060    -3.7990     5.0640 h1         1 9C3       0.109700
     26 H6           2.5180     1.6870    -3.1850 hc         1 9C3       0.047367
     27 H7           1.5680     0.8090    -4.3900 hc         1 9C3       0.047367
     28 H8           3.0000     0.0570    -3.6740 hc         1 9C3       0.047367
     29 H9           1.9480     0.0000     3.3330 ha         1 9C3       0.135500
     30 H10         -1.7740    -0.0000     1.1930 ha         1 9C3       0.135500
     31 H11          3.1700     0.0020     1.1950 ha         1 9C3       0.142500
     32 H12         -2.6330    -0.0210     7.0210 h4         1 9C3       0.158000
     33 H13         -2.3500    -2.9610     6.2820 h1         1 9C3       0.076200
     34 H14         -3.7170    -1.8620     6.5220 h1         1 9C3       0.076200
     35 H15          1.0400    -1.9870    -2.0340 hc         1 9C3       0.047367
     36 H16          1.2530    -1.5430    -3.7330 hc         1 9C3       0.047367
     37 H17         -0.2890    -1.2300    -2.9230 hc         1 9C3       0.047367
     38 H18          0.4450     0.7730    -2.1900 h1         1 9C3       0.045700
     39 O19         -3.1440    -3.7790     2.2040 o          1 9C3      -0.615300
     40 O20         -1.6160    -4.4160     4.0470 o          1 9C3      -0.615300
@<TRIPOS>BOND
     1    19     3 1
     2    19    16 1
     3     5     4 1
     4     5     6 2
     5     4    12 2
     6     3    11 ar
     7     3     1 ar
     8    11     9 ar
     9     1    10 ar
    10    15    16 1
    11     9     2 ar
    12    10     2 ar
    13     2     6 1
    14     6    13 1
    15    12    18 1
    16    16     8 1
    17    13    18 1
    18    13    17 2
    19    18    14 1
    20    17    20 1
    21    14     7 1
    22    39    20 2
    23    20     7 1
    24    20    40 2
    25     1    21 1
    26     4    22 1
    27     5    23 1
    28     7    24 1
    29     7    25 1
    30     8    26 1
    31     8    27 1
    32     8    28 1
    33     9    29 1
    34    10    30 1
    35    11    31 1
    36    12    32 1
    37    14    33 1
    38    14    34 1
    39    15    35 1
    40    15    36 1
    41    15    37 1
    42    16    38 1
@<TRIPOS>SUBSTRUCTURE
     1 9C3         1 TEMP              0 ****  ****    0 ROOT
