@<TRIPOS>MOLECULE
9C4
   25    25     1     0     0
SMALL
bcc


@<TRIPOS>ATOM
      1 OAA         0.1420   -0.0440    0.0860 o         1 9C4     -0.823300
      2 CAI         1.3920    0.0980   -0.0020 c         1 9C4      0.899600
      3 OAB         2.0400    0.2990   -1.0630 o         1 9C4     -0.823300
      4 CAN         2.1770    0.0700    1.3500 c3        1 9C4     -0.006200
      5 OAG         1.4690    0.8230    2.3280 oh        1 9C4     -0.620800
      6 CAH         2.3190   -1.3730    1.8330 c3        1 9C4     -0.114400
      7 CAJ         3.0840   -1.4230    3.1460 c3        1 9C4      0.100100
      8 OAC         3.3060   -2.7640    3.5860 oh        1 9C4     -0.634800
      9 CAK         4.4820   -0.7870    3.0270 c3        1 9C4      0.154100
     10 OAD         5.0950   -0.7310    4.3080 oh        1 9C4     -0.597800
     11 CAL         4.3630    0.6540    2.5070 c3        1 9C4      0.151100
     12 OAE         5.6850    1.1390    2.3070 oh        1 9C4     -0.610800
     13 CAM         3.5840    0.6610    1.1810 c3        1 9C4      0.136100
     14 OAF         3.5660    2.0050    0.7300 oh        1 9C4     -0.634800
     15 HAG         0.5430    0.8350    2.0390 ho        1 9C4      0.423000
     16 HAH1        1.2950   -1.8050    1.9740 hc        1 9C4      0.054700
     17 HAH2        2.8490   -1.9740    1.0520 hc        1 9C4      0.054700
     18 HAM         4.1260    0.0340    0.4140 h1        1 9C4      0.053700
     19 HAJ         2.5020   -0.8790    3.9440 h1        1 9C4      0.061700
     20 HAC         2.5030   -3.2570    3.3890 ho        1 9C4      0.402000
     21 HAK         5.1250   -1.3970    2.3340 h1        1 9C4      0.047700
     22 HAD         5.0690   -1.6310    4.6540 ho        1 9C4      0.401000
     23 HAL         3.8390    1.2970    3.2650 h1        1 9C4      0.068700
     24 HAE         5.5930    1.9480    1.7880 ho        1 9C4      0.413000
     25 HAF         3.0010    2.0080   -0.0600 ho        1 9C4      0.444000
@<TRIPOS>BOND
     1    1    2 1   
     2    2    3 1   
     3    2    4 1   
     4    4    5 1   
     5    4    6 1   
     6    4   13 1   
     7    5   15 1   
     8    6    7 1   
     9    6   16 1   
    10    6   17 1   
    11    7    8 1   
    12    7    9 1   
    13    7   19 1   
    14    8   20 1   
    15    9   10 1   
    16    9   11 1   
    17    9   21 1   
    18   10   22 1   
    19   11   12 1   
    20   11   13 1   
    21   11   23 1   
    22   12   24 1   
    23   13   14 1   
    24   13   18 1   
    25   14   25 1   
@<TRIPOS>SUBSTRUCTURE
     1 9C4         1 TEMP              0 ****  ****    0 ROOT
