@<TRIPOS>MOLECULE
molecule
   25    25     1     0     0
SMALL
bcc


@<TRIPOS>ATOM
      1 OAA          0.0000     0.0000     0.0000 o          1 9C4      -0.833300
      2 CAI          1.3420     0.0000     0.0000 c          1 9C4       0.882600
      3 OAB          1.9460     0.0010    -1.0460 o          1 9C4      -0.833300
      4 CAN          2.0960     0.0000     1.3060 c3         1 9C4       0.049800
      5 OAG          1.3780     0.7730     2.2700 oh         1 9C4      -0.633800
      6 CAH          2.2420    -1.4380     1.8090 c3         1 9C4      -0.086400
      7 CAJ          3.0080    -1.4370     3.1340 c3         1 9C4       0.132100
      8 OAC          3.1450    -2.7800     3.6050 oh         1 9C4      -0.621800
      9 CAK          4.3950    -0.8270     2.9230 c3         1 9C4       0.135100
     10 OAD          5.1080    -0.8270     4.1600 oh         1 9C4      -0.615800
     11 CAL          4.2480     0.6100     2.4180 c3         1 9C4       0.111100
     12 OAE          5.5430     1.1800     2.2210 oh         1 9C4      -0.621800
     13 CAM          3.4830     0.6100     1.0930 c3         1 9C4       0.159100
     14 OAF          3.3450     1.9520     0.6230 oh         1 9C4      -0.587800
     15 HAG          0.5760     1.0890     1.8860 ho         1 9C4       0.433000
     16 HAH1         1.2600    -1.8680     1.9620 hc         1 9C4       0.061200
     17 HAH2         2.7880    -2.0210     1.0780 hc         1 9C4       0.061200
     18 HAM          4.0270     0.0210     0.3650 h1         1 9C4       0.056700
     19 HAJ          2.4640    -0.8480     3.8620 h1         1 9C4       0.056700
     20 HAC          2.5470    -2.9240     4.3200 ho         1 9C4       0.394000
     21 HAK          4.9360    -1.4120     2.1890 h1         1 9C4       0.045700
     22 HAD          5.8960    -1.3380     4.0690 ho         1 9C4       0.397000
     23 HAL          3.7000     1.1930     3.1490 h1         1 9C4       0.065700
     24 HAE          5.6560     1.9130     2.8030 ho         1 9C4       0.397000
     25 HAF          3.9770     2.1130    -0.0590 ho         1 9C4       0.395000
@<TRIPOS>BOND
     1     1     2 1
     2     2     3 1
     3     2     4 1
     4     4     5 1
     5     4     6 1
     6     4    13 1
     7     6     7 1
     8     7     8 1
     9     7     9 1
    10     9    10 1
    11     9    11 1
    12    11    12 1
    13    11    13 1
    14    13    14 1
    15     5    15 1
    16     6    16 1
    17     6    17 1
    18    13    18 1
    19     7    19 1
    20     8    20 1
    21     9    21 1
    22    10    22 1
    23    11    23 1
    24    12    24 1
    25    14    25 1
@<TRIPOS>SUBSTRUCTURE
     1 9C4         1 TEMP              0 ****  ****    0 ROOT
