@<TRIPOS>MOLECULE
9C5
   39    41     1     0     0
SMALL
bcc


@<TRIPOS>ATOM
      1 OAE          0.0000     0.0000     0.0000 oh         1 9C5      -0.593800
      2 CAD          1.4290     0.0000     0.0000 c3         1 9C5       0.196400
      3 CAC          1.9390     0.0000     1.4420 c3         1 9C5       0.156800
      4 NAB          1.5510    -1.2510     2.0980 nh         1 9C5      -0.360000
      5 CAA          0.2730    -1.3390     2.8090 c3         1 9C5       0.208100
      6 CAF          2.3960    -2.3550     2.0460 ca         1 9C5       0.101600
      7 CAK          2.0270    -3.5440     2.6690 ca         1 9C5      -0.207000
      8 CAJ          2.8610    -4.6370     2.6190 ca         1 9C5      -0.009500
      9 CAG          3.6080    -2.2710     1.3660 ca         1 9C5      -0.207000
     10 CAH          4.4460    -3.3620     1.3120 ca         1 9C5      -0.009500
     11 CAI          4.0800    -4.5540     1.9410 ca         1 9C5      -0.235900
     12 CAL          4.9770    -5.7250     1.8860 cc         1 9C5       0.382500
     13 NAM          4.6000    -6.8290     2.4820 nd         1 9C5      -0.556100
     14 CAN          5.3680    -7.9370     2.4720 ca         1 9C5       0.165400
     15 CAS          4.9630    -9.1120     3.1090 ca         1 9C5      -0.105000
     16 CAR          5.7770   -10.2220     3.0740 ca         1 9C5      -0.062000
     17 CAQ          6.9970   -10.1890     2.4140 ca         1 9C5      -0.137000
     18 CAP          7.4190    -9.0420     1.7770 ca         1 9C5      -0.013000
     19 CAO          6.6120    -7.9070     1.8000 ca         1 9C5      -0.224600
     20 CAT          7.0140    -6.6570     1.1360 c          1 9C5       0.622100
     21 OAU          8.0730    -6.5700     0.5420 o          1 9C5      -0.671500
     22 NAV          6.1600    -5.6100     1.2080 ns         1 9C5      -0.020400
     23 H1          -0.3140     0.2670    -0.8480 ho         1 9C5       0.394000
     24 H2           1.7900     0.8850    -0.5110 h1         1 9C5      -0.004800
     25 H3           1.7900    -0.8840    -0.5110 h1         1 9C5      -0.004800
     26 H4           3.0190     0.0880     1.4430 h1         1 9C5       0.033700
     27 H5           1.5080     0.8370     1.9780 h1         1 9C5       0.033700
     28 H6          -0.3510    -2.0890     2.3390 h1         1 9C5       0.010367
     29 H7           0.4530    -1.6150     3.8410 h1         1 9C5       0.010367
     30 H8          -0.2270    -0.3790     2.7740 h1         1 9C5       0.010367
     31 H9           1.0820    -3.6080     3.1940 ha         1 9C5       0.120000
     32 H10          2.5730    -5.5610     3.1070 ha         1 9C5       0.111000
     33 H11          3.8910    -1.3460     0.8780 ha         1 9C5       0.120000
     34 H12          5.3900    -3.2950     0.7830 ha         1 9C5       0.111000
     35 H13          4.0130    -9.1500     3.6280 ha         1 9C5       0.118000
     36 H14          5.4610   -11.1320     3.5700 ha         1 9C5       0.101000
     37 H15          7.6230   -11.0730     2.3980 ha         1 9C5       0.106000
     38 H16          8.3730    -9.0220     1.2630 ha         1 9C5       0.123000
     39 H17          6.3960    -4.7450     0.7630 hn         1 9C5       0.189500
@<TRIPOS>BOND
     1     1     2 1   
     2     1    23 1   
     3     2     3 1   
     4     2    24 1   
     5     2    25 1   
     6     3     4 1   
     7     3    26 1   
     8     3    27 1   
     9     4     5 1   
    10     4     6 1   
    11     5    28 1   
    12     5    29 1   
    13     5    30 1   
    14     6     7 ar  
    15     6     9 ar  
    16     7     8 ar  
    17     7    31 1   
    18     8    11 ar  
    19     8    32 1   
    20     9    10 ar  
    21     9    33 1   
    22    10    11 ar  
    23    10    34 1   
    24    11    12 1   
    25    12    13 2   
    26    12    22 1   
    27    13    14 1   
    28    14    15 ar  
    29    14    19 ar  
    30    15    16 ar  
    31    15    35 1   
    32    16    17 ar  
    33    16    36 1   
    34    17    18 ar  
    35    17    37 1   
    36    18    19 ar  
    37    18    38 1   
    38    19    20 1   
    39    20    21 2   
    40    20    22 1   
    41    22    39 1   
@<TRIPOS>SUBSTRUCTURE
     1 9C5         1 TEMP              0 ****  ****    0 ROOT
