@<TRIPOS>MOLECULE
9C6
   41    44     1     0     0
SMALL
bcc


@<TRIPOS>ATOM
      1 N1           0.0000     0.0000     0.0000 na         1 9C6       0.300900
      2 C4           1.3730     0.0000     0.0000 cc         1 9C6      -0.191300
      3 C5          -0.6780     0.0330     1.1860 cc         1 9C6       0.074700
      4 C6          -1.9300     0.7940    -1.3090 c3         1 9C6      -0.072600
      5 C7          -0.6480    -0.0440    -1.3130 c3         1 9C6      -0.015700
      6 C8          -0.5980     0.0180     3.7520 ca         1 9C6      -0.029000
      7 C10         -2.0320    -1.0670     5.3440 ca         1 9C6      -0.125500
      8 C13         -0.4640     1.1070     4.6140 ca         1 9C6      -0.056500
      9 C15         -3.9730     1.7040     6.5330 ca         1 9C6      -0.169500
     10 C17         -5.5850     2.7360     7.9710 ca         1 9C6      -0.143000
     11 S1          -2.9980     0.1260     0.0100 sy         1 9C6       1.012400
     12 O1          -3.3160    -1.2370    -0.2410 o          1 9C6      -0.570300
     13 C3           2.0990     0.0000     1.1310 cd         1 9C6      -0.157000
     14 C2           1.4730     0.0040     2.3860 cd         1 9C6      -0.049000
     15 N2          -1.9810     0.0880     1.3150 nf         1 9C6      -0.384600
     16 C1           0.0960     0.0170     2.4440 cc         1 9C6      -0.047000
     17 C12         -1.1120     1.1040     5.8310 ca         1 9C6      -0.125500
     18 C11         -1.8960     0.0190     6.1990 ca         1 9C6       0.114100
     19 C9          -1.3820    -1.0730     4.1270 ca         1 9C6      -0.056500
     20 O3          -2.5340     0.0200     7.4000 os         1 9C6      -0.223200
     21 C14         -3.5390     0.9140     7.5880 ca         1 9C6       0.141100
     22 C19         -4.1330     1.0390     8.8350 ca         1 9C6      -0.169500
     23 C18         -5.1540     1.9500     9.0240 ca         1 9C6      -0.061500
     24 C16         -4.9920     2.6160     6.7280 ca         1 9C6      -0.061500
     25 H1           1.8920    -0.0030    -0.9510 h4         1 9C6       0.130000
     26 H2          -2.4290     0.7080    -2.2670 h1         1 9C6       0.080700
     27 H3          -1.6920     1.8300    -1.1010 h1         1 9C6       0.080700
     28 H4           0.0320     0.3490    -2.0590 h1         1 9C6       0.043700
     29 H5          -0.8950    -1.0710    -1.5540 h1         1 9C6       0.043700
     30 H6          -2.6440    -1.9120     5.6350 ha         1 9C6       0.118500
     31 H7           0.1480     1.9540     4.3280 ha         1 9C6       0.109000
     32 H8          -3.5080     1.6100     5.5590 ha         1 9C6       0.124000
     33 H9          -6.3850     3.4510     8.1220 ha         1 9C6       0.104000
     34 H10          3.1810    -0.0100     1.0720 ha         1 9C6       0.122000
     35 H11          2.0620     0.0040     3.2950 ha         1 9C6       0.121000
     36 H13         -1.0090     1.9490     6.5020 ha         1 9C6       0.118500
     37 H14         -1.4880    -1.9200     3.4600 ha         1 9C6       0.109000
     38 H15         -3.7960     0.4240     9.6610 ha         1 9C6       0.124000
     39 H16         -5.6190     2.0480     9.9980 ha         1 9C6       0.102500
     40 H17         -5.3310     3.2330     5.9050 ha         1 9C6       0.102500
     41 O2          -4.0030     1.0640     0.3690 o          1 9C6      -0.570300
@<TRIPOS>BOND
     1     1     2 1   
     2     1     3 1   
     3     1     5 1   
     4     2    13 2   
     5     2    25 1   
     6     3    15 2   
     7     3    16 1   
     8     4     5 1   
     9     4    11 1   
    10     4    26 1   
    11     4    27 1   
    12     5    28 1   
    13     5    29 1   
    14     6     8 ar  
    15     6    16 1   
    16     6    19 ar  
    17     7    18 ar  
    18     7    19 ar  
    19     7    30 1   
    20     8    17 ar  
    21     8    31 1   
    22     9    21 ar  
    23     9    24 ar  
    24     9    32 1   
    25    10    23 ar  
    26    10    24 ar  
    27    10    33 1   
    28    11    12 2   
    29    11    15 1   
    30    11    41 2   
    31    13    14 1   
    32    13    34 1   
    33    14    16 2   
    34    14    35 1   
    35    17    18 ar  
    36    17    36 1   
    37    18    20 1   
    38    19    37 1   
    39    20    21 1   
    40    21    22 ar  
    41    22    23 ar  
    42    22    38 1   
    43    23    39 1   
    44    24    40 1   
@<TRIPOS>SUBSTRUCTURE
     1 9C6         1 TEMP              0 ****  ****    0 ROOT
