@<TRIPOS>MOLECULE
molecule
   41    44     1     0     0
SMALL
bcc


@<TRIPOS>ATOM
      1 N1           0.0000     0.0000     0.0000 na         1 9C6      -0.141100
      2 C4           1.3730     0.0000     0.0000 cc         1 9C6      -0.039300
      3 C5          -0.6780     0.0330     1.1860 cd         1 9C6       0.240700
      4 C6          -1.9300     0.7940    -1.3090 c3         1 9C6      -0.275600
      5 C7          -0.6480    -0.0440    -1.3130 c3         1 9C6       0.048300
      6 C8          -0.5980     0.0180     3.7520 ca         1 9C6      -0.028000
      7 C10         -2.0320    -1.0670     5.3440 ca         1 9C6      -0.145000
      8 C13         -0.4640     1.1070     4.6140 ca         1 9C6      -0.086000
      9 C15         -3.9730     1.7040     6.5330 ca         1 9C6      -0.180000
     10 C17         -5.5850     2.7360     7.9710 ca         1 9C6      -0.163000
     11 S1          -2.9980     0.1260     0.0100 sy         1 9C6       1.330400
     12 O1          -3.3160    -1.2370    -0.2410 o          1 9C6      -0.614300
     13 C3           2.0990     0.0000     1.1310 cc         1 9C6      -0.209000
     14 C2           1.4730     0.0040     2.3860 cc         1 9C6      -0.058000
     15 N2          -1.9810     0.0880     1.3150 ne         1 9C6      -0.508600
     16 C1           0.0960     0.0170     2.4440 cd         1 9C6      -0.061000
     17 C12         -1.1120     1.1040     5.8310 ca         1 9C6      -0.145000
     18 C11         -1.8960     0.0190     6.1990 ca         1 9C6       0.112100
     19 C9          -1.3820    -1.0730     4.1270 ca         1 9C6      -0.086000
     20 O3          -2.5340     0.0200     7.4000 os         1 9C6      -0.251200
     21 C14         -3.5390     0.9140     7.5880 ca         1 9C6       0.132100
     22 C19         -4.1330     1.0390     8.8350 ca         1 9C6      -0.180000
     23 C18         -5.1540     1.9500     9.0240 ca         1 9C6      -0.095000
     24 C16         -4.9920     2.6160     6.7280 ca         1 9C6      -0.095000
     25 H1           1.8920    -0.0030    -0.9510 h4         1 9C6       0.159000
     26 H2          -2.4290     0.7080    -2.2670 h1         1 9C6       0.111200
     27 H3          -1.6920     1.8300    -1.1010 h1         1 9C6       0.111200
     28 H4           0.0320     0.3490    -2.0590 h1         1 9C6       0.076700
     29 H5          -0.8950    -1.0710    -1.5540 h1         1 9C6       0.076700
     30 H6          -2.6440    -1.9120     5.6350 ha         1 9C6       0.147500
     31 H7           0.1480     1.9540     4.3280 ha         1 9C6       0.140500
     32 H8          -3.5080     1.6100     5.5590 ha         1 9C6       0.146500
     33 H9          -6.3850     3.4510     8.1220 ha         1 9C6       0.130000
     34 H10          3.1810    -0.0100     1.0720 ha         1 9C6       0.154000
     35 H11          2.0620     0.0040     3.2950 ha         1 9C6       0.155000
     36 H13         -1.0090     1.9490     6.5020 ha         1 9C6       0.147500
     37 H14         -1.4880    -1.9200     3.4600 ha         1 9C6       0.140500
     38 H15         -3.7960     0.4240     9.6610 ha         1 9C6       0.146500
     39 H16         -5.6190     2.0480     9.9980 ha         1 9C6       0.133500
     40 H17         -5.3310     3.2330     5.9050 ha         1 9C6       0.133500
     41 O2          -4.0030     1.0640     0.3690 o          1 9C6      -0.614300
@<TRIPOS>BOND
     1    23    22 ar
     2    23    10 ar
     3    22    21 ar
     4    10    24 ar
     5    14    13 1
     6    14    16 2
     7    13     2 2
     8    21    20 1
     9    21     9 ar
    10    18    20 1
    11    18    17 ar
    12    18     7 ar
    13    17     8 ar
    14     7    19 ar
    15     8     6 ar
    16    19     6 ar
    17     6    16 1
    18    16     3 1
    19    24     9 ar
    20     2     1 1
    21     3     1 1
    22     3    15 2
    23     1     5 1
    24    15    11 1
    25     5     4 1
    26    12    11 2
    27    11     4 1
    28    11    41 2
    29     2    25 1
    30     4    26 1
    31     4    27 1
    32     5    28 1
    33     5    29 1
    34     7    30 1
    35     8    31 1
    36     9    32 1
    37    10    33 1
    38    13    34 1
    39    14    35 1
    40    17    36 1
    41    19    37 1
    42    22    38 1
    43    23    39 1
    44    24    40 1
@<TRIPOS>SUBSTRUCTURE
     1 9C6         1 TEMP              0 ****  ****    0 ROOT
