@<TRIPOS>MOLECULE
molecule
   41    43     1     0     0
SMALL
bcc


@<TRIPOS>ATOM
      1 CAA          0.0000     0.0000     0.0000 c3         1 9C8      -0.120100
      2 CAB          1.5300     0.0000     0.0000 c3         1 9C8       0.230800
      3 NAC          2.0180     0.0000     1.3810 nh         1 9C8      -0.723000
      4 CAD          2.2610     1.2680     2.0730 c3         1 9C8       0.230800
      5 CAE          0.9860     1.7090     2.7940 c3         1 9C8      -0.120100
      6 CAF          2.2490    -1.2060     2.0370 ca         1 9C8       0.231600
      7 CAK          2.7120    -1.2060     3.3490 ca         1 9C8      -0.221500
      8 CAJ          2.9430    -2.3960     4.0000 ca         1 9C8      -0.039000
      9 CAG          2.0120    -2.4100     1.3810 ca         1 9C8      -0.221500
     10 CAH          2.2400    -3.6050     2.0270 ca         1 9C8      -0.039000
     11 CAI          2.7110    -3.6070     3.3420 ca         1 9C8      -0.219900
     12 CAL          2.9570    -4.8860     4.0380 cc         1 9C8       0.574500
     13 NAM          3.3920    -4.8520     5.2720 nd         1 9C8      -0.663100
     14 CAN          3.6380    -5.9800     5.9670 ca         1 9C8       0.208400
     15 CAO          4.1030    -5.9400     7.2850 ca         1 9C8      -0.129000
     16 CAP          4.3410    -7.1150     7.9610 ca         1 9C8      -0.091000
     17 CAQ          4.1250    -8.3430     7.3500 ca         1 9C8      -0.162000
     18 CAR          3.6670    -8.4100     6.0520 ca         1 9C8      -0.049000
     19 CAS          3.4190    -7.2320     5.3490 ca         1 9C8      -0.215600
     20 CAT          2.9290    -7.2470     3.9630 c          1 9C8       0.710100
     21 OAU          2.7220    -8.2930     3.3770 o          1 9C8      -0.629500
     22 NAV          2.7130    -6.0520     3.3640 ns         1 9C8      -0.474400
     23 H1          -0.3610     1.0210    -0.0040 hc         1 9C8       0.043033
     24 H2          -0.3610    -0.5070     0.8860 hc         1 9C8       0.043033
     25 H3          -0.3610    -0.5140    -0.8830 hc         1 9C8       0.043033
     26 H4           1.8910    -0.8840    -0.5110 h1         1 9C8       0.051450
     27 H5           1.8910     0.8850    -0.5110 h1         1 9C8       0.051450
     28 H6           2.5480     2.0240     1.3510 h1         1 9C8       0.051450
     29 H7           3.0580     1.1390     2.7960 h1         1 9C8       0.051450
     30 H8           0.3910     2.3250     2.1310 hc         1 9C8       0.043033
     31 H9           0.4150     0.8350     3.0840 hc         1 9C8       0.043033
     32 H10          1.2480     2.2780     3.6770 hc         1 9C8       0.043033
     33 H11          2.8920    -0.2670     3.8590 ha         1 9C8       0.140000
     34 H12          3.3060    -2.3940     5.0210 ha         1 9C8       0.142500
     35 H13          1.6460    -2.4080     0.3610 ha         1 9C8       0.140000
     36 H14          2.0570    -4.5420     1.5150 ha         1 9C8       0.142500
     37 H15          4.2750    -4.9870     7.7720 ha         1 9C8       0.147000
     38 H16          4.7010    -7.0810     8.9820 ha         1 9C8       0.132000
     39 H17          4.3180    -9.2570     7.8980 ha         1 9C8       0.134000
     40 H18          3.5000    -9.3710     5.5820 ha         1 9C8       0.152000
     41 H19          2.3720    -6.0210     2.4240 hn         1 9C8       0.337500
@<TRIPOS>BOND
     1     5     4 1
     2     4     3 1
     3     2     1 1
     4     2     3 1
     5     3     6 1
     6     6     7 ar
     7     6     9 ar
     8     7     8 ar
     9     9    10 ar
    10     8    11 ar
    11    10    11 ar
    12    11    12 1
    13    12    13 2
    14    12    22 1
    15    13    14 1
    16    22    20 1
    17    14    15 ar
    18    14    19 ar
    19    15    16 ar
    20    20    19 1
    21    20    21 2
    22    19    18 ar
    23    16    17 ar
    24    18    17 ar
    25     1    23 1
    26     1    24 1
    27     1    25 1
    28     2    26 1
    29     2    27 1
    30     4    28 1
    31     4    29 1
    32     5    30 1
    33     5    31 1
    34     5    32 1
    35     7    33 1
    36     8    34 1
    37     9    35 1
    38    10    36 1
    39    15    37 1
    40    16    38 1
    41    17    39 1
    42    18    40 1
    43    22    41 1
@<TRIPOS>SUBSTRUCTURE
     1 9C8         1 TEMP              0 ****  ****    0 ROOT
