@<TRIPOS>MOLECULE
9C8
   41    43     1     0     0
SMALL
bcc


@<TRIPOS>ATOM
      1 CAA          0.0000     0.0000     0.0000 c3         1 9C8      -0.026600
      2 CAB          1.5300     0.0000     0.0000 c3         1 9C8       0.166800
      3 NAC          2.0180     0.0000     1.3810 nh         1 9C8      -0.371000
      4 CAD          2.2610     1.2680     2.0730 c3         1 9C8       0.166800
      5 CAE          0.9860     1.7090     2.7940 c3         1 9C8      -0.026600
      6 CAF          2.2490    -1.2060     2.0370 ca         1 9C8       0.104600
      7 CAK          2.7120    -1.2060     3.3490 ca         1 9C8      -0.207000
      8 CAJ          2.9430    -2.3960     4.0000 ca         1 9C8      -0.011000
      9 CAG          2.0120    -2.4100     1.3810 ca         1 9C8      -0.207000
     10 CAH          2.2400    -3.6050     2.0270 ca         1 9C8      -0.011000
     11 CAI          2.7110    -3.6070     3.3420 ca         1 9C8      -0.233900
     12 CAL          2.9570    -4.8860     4.0380 cc         1 9C8       0.381500
     13 NAM          3.3920    -4.8520     5.2720 nd         1 9C8      -0.555100
     14 CAN          3.6380    -5.9800     5.9670 ca         1 9C8       0.165400
     15 CAO          4.1030    -5.9400     7.2850 ca         1 9C8      -0.105000
     16 CAP          4.3410    -7.1150     7.9610 ca         1 9C8      -0.062000
     17 CAQ          4.1250    -8.3430     7.3500 ca         1 9C8      -0.137000
     18 CAR          3.6670    -8.4100     6.0520 ca         1 9C8      -0.013000
     19 CAS          3.4190    -7.2320     5.3490 ca         1 9C8      -0.224600
     20 CAT          2.9290    -7.2470     3.9630 c          1 9C8       0.622100
     21 OAU          2.7220    -8.2930     3.3770 o          1 9C8      -0.670500
     22 NAV          2.7130    -6.0520     3.3640 ns         1 9C8      -0.021400
     23 H1          -0.3610     1.0210    -0.0040 hc         1 9C8       0.011200
     24 H2          -0.3610    -0.5070     0.8860 hc         1 9C8       0.011200
     25 H3          -0.3610    -0.5140    -0.8830 hc         1 9C8       0.011200
     26 H4           1.8910    -0.8840    -0.5110 h1         1 9C8       0.025950
     27 H5           1.8910     0.8850    -0.5110 h1         1 9C8       0.025950
     28 H6           2.5480     2.0240     1.3510 h1         1 9C8       0.025950
     29 H7           3.0580     1.1390     2.7960 h1         1 9C8       0.025950
     30 H8           0.3910     2.3250     2.1310 hc         1 9C8       0.011200
     31 H9           0.4150     0.8350     3.0840 hc         1 9C8       0.011200
     32 H10          1.2480     2.2780     3.6770 hc         1 9C8       0.011200
     33 H11          2.8920    -0.2670     3.8590 ha         1 9C8       0.123000
     34 H12          3.3060    -2.3940     5.0210 ha         1 9C8       0.111500
     35 H13          1.6460    -2.4080     0.3610 ha         1 9C8       0.123000
     36 H14          2.0570    -4.5420     1.5150 ha         1 9C8       0.111500
     37 H15          4.2750    -4.9870     7.7720 ha         1 9C8       0.118000
     38 H16          4.7010    -7.0810     8.9820 ha         1 9C8       0.101000
     39 H17          4.3180    -9.2570     7.8980 ha         1 9C8       0.106000
     40 H18          3.5000    -9.3710     5.5820 ha         1 9C8       0.123000
     41 H19          2.3720    -6.0210     2.4240 hn         1 9C8       0.189500
@<TRIPOS>BOND
     1     1     2 1   
     2     1    23 1   
     3     1    24 1   
     4     1    25 1   
     5     2     3 1   
     6     2    26 1   
     7     2    27 1   
     8     3     4 1   
     9     3     6 1   
    10     4     5 1   
    11     4    28 1   
    12     4    29 1   
    13     5    30 1   
    14     5    31 1   
    15     5    32 1   
    16     6     7 ar  
    17     6     9 ar  
    18     7     8 ar  
    19     7    33 1   
    20     8    11 ar  
    21     8    34 1   
    22     9    10 ar  
    23     9    35 1   
    24    10    11 ar  
    25    10    36 1   
    26    11    12 1   
    27    12    13 2   
    28    12    22 1   
    29    13    14 1   
    30    14    15 ar  
    31    14    19 ar  
    32    15    16 ar  
    33    15    37 1   
    34    16    17 ar  
    35    16    38 1   
    36    17    18 ar  
    37    17    39 1   
    38    18    19 ar  
    39    18    40 1   
    40    19    20 1   
    41    20    21 2   
    42    20    22 1   
    43    22    41 1   
@<TRIPOS>SUBSTRUCTURE
     1 9C8         1 TEMP              0 ****  ****    0 ROOT
