@<TRIPOS>MOLECULE
molecule
   66    69     1     0     0
SMALL
bcc


@<TRIPOS>ATOM
      1 C1           0.0000     0.0000     0.0000 c          1 9C9       0.710500
      2 O2          -0.6010     0.9990    -0.3350 o          1 9C9      -0.635500
      3 C6           0.8040    -2.8720    -2.1910 ca         1 9C9       0.040400
      4 C7          -0.0210    -3.1560    -3.2640 ca         1 9C9      -0.094000
      5 C8          -0.5270    -2.1280    -4.0380 ca         1 9C9      -0.090000
      6 C9          -0.2080    -0.8160    -3.7400 ca         1 9C9      -0.094000
      7 C10          0.6160    -0.5320    -2.6670 ca         1 9C9       0.040400
      8 Cl2          1.0100     1.1170    -2.2880 cl         1 9C9      -0.099400
      9 C5           1.1190    -1.5590    -1.8890 ca         1 9C9      -0.082300
     10 C4           2.0180    -1.2500    -0.7190 c3         1 9C9      -0.053100
     11 C3           1.5070     0.0000     0.0000 c3         1 9C9      -0.176700
     12 C11          2.0120     0.0000     1.4460 c3         1 9C9       0.246800
     13 N12          2.0010    -1.3740     1.9590 nu         1 9C9      -0.964200
     14 C13          0.8100    -2.0910     1.9990 c2         1 9C9       0.543200
     15 N14          0.3630    -2.5510     3.1200 n2         1 9C9      -0.423400
     16 N62          1.0190    -2.2400     4.3180 nh         1 9C9      -0.615700
     17 C63          1.5780    -3.3110     5.1470 c3         1 9C9       0.254600
     18 C68          1.1450    -0.8430     4.7420 c3         1 9C9       0.254600
     19 C15          0.0470    -2.3240     0.7170 c3         1 9C9       0.037700
     20 N16         -0.6840    -1.0970     0.3720 n          1 9C9      -0.464800
     21 C17         -2.1470    -1.0680     0.4330 c3         1 9C9       0.043000
     22 C19         -2.7130    -1.3030    -0.9450 c          1 9C9       0.641100
     23 O30         -1.9650    -1.4570    -1.8890 o          1 9C9      -0.587100
     24 N20         -4.0470    -1.3400    -1.1280 ns         1 9C9      -0.474100
     25 C21         -4.5710    -1.6440    -2.3900 ca         1 9C9       0.065600
     26 C25         -5.8240    -2.2290    -2.4980 ca         1 9C9      -0.166000
     27 C26         -6.3410    -2.5300    -3.7540 ca         1 9C9       0.033000
     28 C27         -5.5980    -2.2430    -4.8970 ca         1 9C9      -0.152000
     29 C28         -4.3510    -1.6610    -4.7820 ca         1 9C9      -0.111000
     30 C29         -3.8390    -1.3560    -3.5350 ca         1 9C9      -0.152000
     31 C60         -7.6830    -3.1560    -3.8770 cc         1 9C9      -0.262300
     32 C64         -8.5400    -3.5010    -2.8140 cc         1 9C9       0.346200
     33 N63         -9.6240    -4.0260    -3.3220 nd         1 9C9      -0.511800
     34 N71         -9.5020    -4.0390    -4.7160 na         1 9C9       0.067400
     35 C67        -10.4990    -4.5470    -5.6610 c3         1 9C9       0.062600
     36 C61         -8.3090    -3.4960    -5.0400 cd         1 9C9      -0.098300
     37 H1          -0.2710    -4.1830    -3.4980 ha         1 9C9       0.143500
     38 H2          -1.1740    -2.3510    -4.8780 ha         1 9C9       0.139000
     39 H3          -0.6050    -0.0110    -4.3460 ha         1 9C9       0.143500
     40 H4           2.0190    -2.0870    -0.0320 hc         1 9C9       0.077200
     41 H5           3.0260    -1.0740    -1.0760 hc         1 9C9       0.077200
     42 H6           1.8670     0.8870    -0.5070 hc         1 9C9       0.112700
     43 H7           3.0230     0.3890     1.4760 h1         1 9C9       0.049200
     44 H8           1.3630     0.6170     2.0550 h1         1 9C9       0.049200
     45 H9           2.8510    -1.7950     2.2790 hn         1 9C9       0.444800
     46 H10          1.5360    -4.2470     4.6050 h1         1 9C9       0.027033
     47 H11          1.0040    -3.3970     6.0620 h1         1 9C9       0.027033
     48 H12          2.6090    -3.0800     5.3890 h1         1 9C9       0.027033
     49 H13          2.1410    -0.4850     4.5120 h1         1 9C9       0.027033
     50 H14          0.9740    -0.7720     5.8090 h1         1 9C9       0.027033
     51 H15          0.4150    -0.2390     4.2180 h1         1 9C9       0.027033
     52 H16         -0.6560    -3.1360     0.8570 h1         1 9C9       0.095700
     53 H17          0.7400    -2.5680    -0.0790 h1         1 9C9       0.095700
     54 H18         -2.4960    -1.8450     1.1030 h1         1 9C9       0.079700
     55 H19         -2.4750    -0.1020     0.7980 h1         1 9C9       0.079700
     56 H20         -4.6620    -1.1170    -0.3710 hn         1 9C9       0.323500
     57 H21         -6.3980    -2.4510    -1.6070 ha         1 9C9       0.128000
     58 H22         -5.9970    -2.4780    -5.8760 ha         1 9C9       0.123000
     59 H23         -3.7750    -1.4360    -5.6720 ha         1 9C9       0.128000
     60 H24         -2.8600    -0.9000    -3.4490 ha         1 9C9       0.177000
     61 H25         -8.3380    -3.3550    -1.7600 h4         1 9C9       0.049100
     62 H26        -10.8040    -3.7490    -6.3280 h1         1 9C9       0.055700
     63 H27        -10.0690    -5.3560    -6.2400 h1         1 9C9       0.055700
     64 H28        -11.3610    -4.9120    -5.1160 h1         1 9C9       0.055700
     65 H29         -7.9180    -3.3630    -6.0410 h4         1 9C9       0.173000
     66 Cl1          1.4400    -4.1630    -1.2190 cl         1 9C9      -0.099400
@<TRIPOS>BOND
     1    29    30 ar
     2    29    28 ar
     3    30    25 ar
     4    28    27 ar
     5    25    24 1
     6    25    26 ar
     7    27    26 ar
     8    27    31 1
     9    24    22 1
    10    36    31 2
    11    36    34 1
    12    31    32 1
    13     2     1 2
    14     8     7 1
    15    34    35 1
    16    34    33 1
    17    22    21 1
    18    22    23 2
    19    32    33 2
    20    21    20 1
    21     1    20 1
    22     1    11 1
    23    10    11 1
    24    10     9 1
    25     7     9 ar
    26     7     6 ar
    27    20    19 1
    28    11    12 1
    29     9     3 ar
    30     6     5 ar
    31    12    13 1
    32    19    14 1
    33    13    14 1
    34     3     4 ar
    35     3    66 1
    36     5     4 ar
    37    14    15 2
    38    17    16 1
    39    15    16 1
    40    16    18 1
    41     4    37 1
    42     5    38 1
    43     6    39 1
    44    10    40 1
    45    10    41 1
    46    11    42 1
    47    12    43 1
    48    12    44 1
    49    13    45 1
    50    17    46 1
    51    17    47 1
    52    17    48 1
    53    18    49 1
    54    18    50 1
    55    18    51 1
    56    19    52 1
    57    19    53 1
    58    21    54 1
    59    21    55 1
    60    24    56 1
    61    26    57 1
    62    28    58 1
    63    29    59 1
    64    30    60 1
    65    32    61 1
    66    35    62 1
    67    35    63 1
    68    35    64 1
    69    36    65 1
@<TRIPOS>SUBSTRUCTURE
     1 9C9         1 TEMP              0 ****  ****    0 ROOT
