@<TRIPOS>MOLECULE
9C9
   66    69     1     0     0
SMALL
bcc


@<TRIPOS>ATOM
      1 C1           0.0000     0.0000     0.0000 c          1 9C9       0.633500
      2 O2          -0.6010     0.9990    -0.3350 o          1 9C9      -0.683500
      3 C6           0.8040    -2.8720    -2.1910 ca         1 9C9      -0.024100
      4 C7          -0.0210    -3.1560    -3.2640 ca         1 9C9      -0.071500
      5 C8          -0.5270    -2.1280    -4.0380 ca         1 9C9      -0.062000
      6 C9          -0.2080    -0.8160    -3.7400 ca         1 9C9      -0.071500
      7 C10          0.6160    -0.5320    -2.6670 ca         1 9C9      -0.024100
      8 Cl2          1.0100     1.1170    -2.2880 cl         1 9C9      -0.005900
      9 C5           1.1190    -1.5590    -1.8890 ca         1 9C9      -0.095300
     10 C4           2.0180    -1.2500    -0.7190 c3         1 9C9      -0.016100
     11 C3           1.5070     0.0000     0.0000 c3         1 9C9      -0.187700
     12 C11          2.0120     0.0000     1.4460 c3         1 9C9       0.200800
     13 N12          2.0010    -1.3740     1.9590 nu         1 9C9      -0.593200
     14 C13          0.8100    -2.0910     1.9990 c2         1 9C9       0.421200
     15 N14          0.3630    -2.5510     3.1200 n2         1 9C9      -0.474400
     16 N62          1.0190    -2.2400     4.3180 nh         1 9C9      -0.349700
     17 C63          1.5780    -3.3110     5.1470 c3         1 9C9       0.249600
     18 C68          1.1450    -0.8430     4.7420 c3         1 9C9       0.249600
     19 C15          0.0470    -2.3240     0.7170 c3         1 9C9      -0.074300
     20 N16         -0.6840    -1.0970     0.3720 n          1 9C9      -0.097800
     21 C17         -2.1470    -1.0680     0.4330 c3         1 9C9      -0.017000
     22 C19         -2.7130    -1.3030    -0.9450 c          1 9C9       0.544100
     23 O30         -1.9650    -1.4570    -1.8890 o          1 9C9      -0.632100
     24 N20         -4.0470    -1.3400    -1.1280 ns         1 9C9      -0.020100
     25 C21         -4.5710    -1.6440    -2.3900 ca         1 9C9      -0.080400
     26 C25         -5.8240    -2.2290    -2.4980 ca         1 9C9      -0.144000
     27 C26         -6.3410    -2.5300    -3.7540 ca         1 9C9       0.046000
     28 C27         -5.5980    -2.2430    -4.8970 ca         1 9C9      -0.128000
     29 C28         -4.3510    -1.6610    -4.7820 ca         1 9C9      -0.077000
     30 C29         -3.8390    -1.3560    -3.5350 ca         1 9C9      -0.145000
     31 C60         -7.6830    -3.1560    -3.8770 cc         1 9C9      -0.266300
     32 C64         -8.5400    -3.5010    -2.8140 cc         1 9C9       0.404200
     33 N63         -9.6240    -4.0260    -3.3220 nd         1 9C9      -0.649800
     34 N71         -9.5020    -4.0390    -4.7160 na         1 9C9       0.492400
     35 C67        -10.4990    -4.5470    -5.6610 c3         1 9C9       0.023600
     36 C61         -8.3090    -3.4960    -5.0400 cd         1 9C9      -0.241300
     37 H1          -0.2710    -4.1830    -3.4980 ha         1 9C9       0.112500
     38 H2          -1.1730    -2.3510    -4.8790 ha         1 9C9       0.106000
     39 H3          -0.6050    -0.0110    -4.3460 ha         1 9C9       0.112500
     40 H4           2.0190    -2.0870    -0.0320 hc         1 9C9       0.052700
     41 H5           3.0260    -1.0740    -1.0760 hc         1 9C9       0.052700
     42 H6           1.8670     0.8870    -0.5060 hc         1 9C9       0.095700
     43 H7           3.0220     0.3890     1.4760 h1         1 9C9       0.021200
     44 H8           1.3620     0.6170     2.0550 h1         1 9C9       0.021200
     45 H9           2.8510    -1.7950     2.2790 hn         1 9C9       0.307800
     46 H10          2.6100    -3.0820     5.3860 h1         1 9C9      -0.003800
     47 H11          1.0060    -3.3940     6.0630 h1         1 9C9      -0.003800
     48 H12          1.5320    -4.2480     4.6060 h1         1 9C9      -0.003800
     49 H13          2.1410    -0.4850     4.5110 h1         1 9C9      -0.003800
     50 H14          0.4140    -0.2400     4.2190 h1         1 9C9      -0.003800
     51 H15          0.9750    -0.7730     5.8090 h1         1 9C9      -0.003800
     52 H16          0.7410    -2.5680    -0.0780 h1         1 9C9       0.077700
     53 H17         -0.6550    -3.1370     0.8570 h1         1 9C9       0.077700
     54 H18         -2.4960    -1.8450     1.1030 h1         1 9C9       0.047200
     55 H19         -2.4750    -0.1020     0.7980 h1         1 9C9       0.047200
     56 H20         -4.6620    -1.1090    -0.3730 hn         1 9C9       0.166500
     57 H21         -6.3980    -2.4510    -1.6070 ha         1 9C9       0.110000
     58 H22         -5.9970    -2.4780    -5.8760 ha         1 9C9       0.103000
     59 H23         -3.7750    -1.4360    -5.6720 ha         1 9C9       0.100000
     60 H24         -2.8600    -0.8990    -3.4490 ha         1 9C9       0.167000
     61 H25         -8.3380    -3.3550    -1.7600 h4         1 9C9       0.005100
     62 H26        -11.3070    -5.0180    -5.1150 h1         1 9C9       0.021700
     63 H27        -10.8900    -3.7260    -6.2500 h1         1 9C9       0.021700
     64 H28        -10.0360    -5.2730    -6.3190 h1         1 9C9       0.021700
     65 H29         -7.9170    -3.3630    -6.0410 h4         1 9C9       0.150000
     66 Cl1          1.4400    -4.1630    -1.2190 cl         1 9C9      -0.005900
@<TRIPOS>BOND
     1     1     2 2   
     2     1    11 1   
     3     1    20 1   
     4     3     4 ar  
     5     3     9 ar  
     6     3    66 1   
     7     4     5 ar  
     8     4    37 1   
     9     5     6 ar  
    10     5    38 1   
    11     6     7 ar  
    12     6    39 1   
    13     7     8 1   
    14     7     9 ar  
    15     9    10 1   
    16    10    11 1   
    17    10    40 1   
    18    10    41 1   
    19    11    12 1   
    20    11    42 1   
    21    12    13 1   
    22    12    43 1   
    23    12    44 1   
    24    13    14 1   
    25    13    45 1   
    26    14    15 2   
    27    14    19 1   
    28    15    16 1   
    29    16    17 1   
    30    16    18 1   
    31    17    46 1   
    32    17    47 1   
    33    17    48 1   
    34    18    49 1   
    35    18    50 1   
    36    18    51 1   
    37    19    20 1   
    38    19    52 1   
    39    19    53 1   
    40    20    21 1   
    41    21    22 1   
    42    21    54 1   
    43    21    55 1   
    44    22    23 2   
    45    22    24 1   
    46    24    25 1   
    47    24    56 1   
    48    25    26 ar  
    49    25    30 ar  
    50    26    27 ar  
    51    26    57 1   
    52    27    28 ar  
    53    27    31 1   
    54    28    29 ar  
    55    28    58 1   
    56    29    30 ar  
    57    29    59 1   
    58    30    60 1   
    59    31    32 1   
    60    31    36 2   
    61    32    33 2   
    62    32    61 1   
    63    33    34 1   
    64    34    35 1   
    65    34    36 1   
    66    35    62 1   
    67    35    63 1   
    68    35    64 1   
    69    36    65 1   
@<TRIPOS>SUBSTRUCTURE
     1 9C9         1 TEMP              0 ****  ****    0 ROOT
