@<TRIPOS>MOLECULE
9CA
   22    24     1     0     0
SMALL
bcc


@<TRIPOS>ATOM
      1 C9A         0.0010    0.0300   -0.0020 ca        1 9CA     -0.018200
      2 C1          1.3980    0.0190   -0.0370 ca        1 9CA     -0.155000
      3 C2          2.0800   -0.0000    1.1790 ca        1 9CA     -0.103000
      4 C3          1.4010   -0.0070    2.4010 ca        1 9CA     -0.160000
      5 C4          0.0060    0.0010    2.4500 ca        1 9CA     -0.077000
      6 C4A        -0.7060    0.0140    1.2600 cp        1 9CA     -0.076000
      7 C4B        -2.1230    0.0140    0.9370 cp        1 9CA     -0.076000
      8 C5         -3.2790   -0.0000    1.7030 ca        1 9CA     -0.077000
      9 C6         -4.5150   -0.0100    1.0550 ca        1 9CA     -0.160000
     10 C7         -4.5990   -0.0030   -0.3400 ca        1 9CA     -0.103000
     11 C8         -3.4580    0.0170   -1.1410 ca        1 9CA     -0.155000
     12 C8A        -2.2140    0.0290   -0.5060 ca        1 9CA     -0.018200
     13 N9         -0.9210    0.1170   -1.0670 na        1 9CA     -0.177300
     14 H1          1.9450    0.0300   -0.9890 ha        1 9CA      0.136000
     15 H2          3.1810   -0.0100    1.1740 ha        1 9CA      0.131000
     16 H3          1.9750   -0.0190    3.3380 ha        1 9CA      0.132000
     17 H4         -0.5220   -0.0020    3.4140 ha        1 9CA      0.136000
     18 H5         -3.2200   -0.0030    2.8000 ha        1 9CA      0.136000
     19 H6         -5.4390   -0.0230    1.6520 ha        1 9CA      0.132000
     20 H7         -5.5890   -0.0140   -0.8210 ha        1 9CA      0.131000
     21 H8         -3.5400    0.0280   -2.2360 ha        1 9CA      0.136000
     22 HN9        -0.7170   -0.2460   -1.9640 hn        1 9CA      0.283700
@<TRIPOS>BOND
     1    1    2 ar  
     2    1    6 ar  
     3    1   13 1   
     4    2    3 ar  
     5    2   14 1   
     6    3    4 ar  
     7    3   15 1   
     8    4    5 ar  
     9    4   16 1   
    10    5    6 ar  
    11    5   17 1   
    12    6    7 1   
    13    7    8 ar  
    14    7   12 ar  
    15    8    9 ar  
    16    8   18 1   
    17    9   10 ar  
    18    9   19 1   
    19   10   11 ar  
    20   10   20 1   
    21   11   12 ar  
    22   11   21 1   
    23   12   13 1   
    24   13   22 1   
@<TRIPOS>SUBSTRUCTURE
     1 9CA         1 TEMP              0 ****  ****    0 ROOT
