@<TRIPOS>MOLECULE
molecule
   22    24     1     0     0
SMALL
bcc


@<TRIPOS>ATOM
      1 C9A          0.0000     0.0000     0.0000 ca         1 9CA       0.006800
      2 C1           1.3920     0.0000     0.0000 ca         1 9CA      -0.160000
      3 C2           2.0820     0.0000     1.1940 ca         1 9CA      -0.096000
      4 C3           1.4010     0.0000     2.4010 ca         1 9CA      -0.164000
      5 C4           0.0230    -0.0010     2.4220 ca         1 9CA      -0.071000
      6 C4A         -0.6870     0.0000     1.2230 cp         1 9CA      -0.090000
      7 C4B         -2.1240    -0.0020     0.8960 cp         1 9CA      -0.090000
      8 C5          -3.2820    -0.0030     1.6690 ca         1 9CA      -0.071000
      9 C6          -4.5160    -0.0050     1.0540 ca         1 9CA      -0.164000
     10 C7          -4.6070    -0.0040    -0.3290 ca         1 9CA      -0.096000
     11 C8          -3.4680    -0.0030    -1.1070 ca         1 9CA      -0.160000
     12 C8A         -2.2130     0.0040    -0.5040 ca         1 9CA       0.006800
     13 N9          -0.9310    -0.0010    -1.0230 na         1 9CA      -0.193300
     14 H1           1.9330    -0.0000    -0.9380 ha         1 9CA       0.128000
     15 H2           3.1650     0.0010     1.1880 ha         1 9CA       0.131000
     16 H3           1.9540     0.0000     3.3320 ha         1 9CA       0.131000
     17 H4          -0.5060    -0.0010     3.3670 ha         1 9CA       0.132000
     18 H5          -3.2140    -0.0030     2.7500 ha         1 9CA       0.132000
     19 H6          -5.4180    -0.0060     1.6540 ha         1 9CA       0.131000
     20 H7          -5.5810    -0.0050    -0.8030 ha         1 9CA       0.131000
     21 H8          -3.5500    -0.0030    -2.1870 ha         1 9CA       0.128000
     22 HN9         -0.7090    -0.0050    -1.9990 hn         1 9CA       0.298700
@<TRIPOS>BOND
     1     1     2 ar
     2     1     6 ar
     3     1    13 1
     4     2     3 ar
     5     2    14 1
     6     3     4 ar
     7     3    15 1
     8     4     5 ar
     9     4    16 1
    10     5     6 ar
    11     5    17 1
    12     6     7 1
    13     7     8 ar
    14     7    12 ar
    15     8     9 ar
    16     8    18 1
    17     9    10 ar
    18     9    19 1
    19    10    11 ar
    20    10    20 1
    21    11    12 ar
    22    11    21 1
    23    12    13 1
    24    13    22 1
@<TRIPOS>SUBSTRUCTURE
     1 9CA         1 TEMP              0 ****  ****    0 ROOT
