@<TRIPOS>MOLECULE
9CB
   39    41     1     0     0
SMALL
bcc


@<TRIPOS>ATOM
      1 OAE          0.0000     0.0000     0.0000 oh         1 9CB      -0.594800
      2 CAD          1.4280     0.0000     0.0000 c3         1 9CB       0.197400
      3 CAC          1.9390     0.0000     1.4420 c3         1 9CB       0.156800
      4 NAB          1.5510    -1.2520     2.0980 nh         1 9CB      -0.359000
      5 CAA          0.2740    -1.3410     2.8090 c3         1 9CB       0.208100
      6 CAF          2.3980    -2.3560     2.0440 ca         1 9CB       0.103600
      7 CAK          3.6130    -2.2680     1.3730 ca         1 9CB      -0.207500
      8 CAJ          4.4520    -3.3590     1.3200 ca         1 9CB      -0.008000
      9 CAG          2.0280    -3.5450     2.6670 ca         1 9CB      -0.207500
     10 CAH          2.8620    -4.6380     2.6170 ca         1 9CB      -0.008000
     11 CAI          4.0810    -4.5550     1.9390 ca         1 9CB      -0.240900
     12 CAL          4.9780    -5.7250     1.8830 cc         1 9CB       0.390500
     13 NAM          6.1150    -5.6110     1.2440 nd         1 9CB      -0.560100
     14 CAN          6.9820    -6.6390     1.1530 ca         1 9CB       0.179400
     15 CAT          8.1940    -6.5130     0.4700 ca         1 9CB      -0.108000
     16 CAR          9.0540    -7.5870     0.4000 ca         1 9CB       0.004400
     17 Cl          10.5590    -7.4290    -0.4490 cl         1 9CB      -0.025400
     18 CAQ          8.7300    -8.7990     1.0010 ca         1 9CB      -0.139000
     19 CAP          7.5390    -8.9470     1.6790 ca         1 9CB       0.000000
     20 CAO          6.6560    -7.8720     1.7630 ca         1 9CB      -0.229600
     21 CAU          5.3750    -7.9780     2.4740 c          1 9CB       0.622100
     22 OAV          5.0380    -9.0130     3.0200 o          1 9CB      -0.668500
     23 NAW          4.5860    -6.8790     2.5060 ns         1 9CB      -0.019400
     24 H1          -0.3140     0.2670    -0.8480 ho         1 9CB       0.394000
     25 H2           1.7890     0.8840    -0.5110 h1         1 9CB      -0.004300
     26 H3           1.7890    -0.8840    -0.5110 h1         1 9CB      -0.004300
     27 H4           3.0190     0.0880     1.4420 h1         1 9CB       0.034700
     28 H5           1.5080     0.8370     1.9780 h1         1 9CB       0.034700
     29 H6          -0.3500    -2.0900     2.3370 h1         1 9CB       0.010367
     30 H7           0.4530    -1.6170     3.8400 h1         1 9CB       0.010367
     31 H8          -0.2270    -0.3810     2.7740 h1         1 9CB       0.010367
     32 H9           3.9000    -1.3410     0.8930 ha         1 9CB       0.120500
     33 H10          5.3980    -3.2900     0.7950 ha         1 9CB       0.111000
     34 H11          1.0820    -3.6100     3.1930 ha         1 9CB       0.120500
     35 H12          2.5730    -5.5630     3.1000 ha         1 9CB       0.111000
     36 H13          8.4990    -5.5490     0.0800 ha         1 9CB       0.130000
     37 H14          9.4180    -9.6320     0.9360 ha         1 9CB       0.119000
     38 H15          7.2920    -9.8930     2.1460 ha         1 9CB       0.126000
     39 H16          3.7090    -6.9100     2.9880 hn         1 9CB       0.191500
@<TRIPOS>BOND
     1     1     2 1   
     2     1    24 1   
     3     2     3 1   
     4     2    25 1   
     5     2    26 1   
     6     3     4 1   
     7     3    27 1   
     8     3    28 1   
     9     4     5 1   
    10     4     6 1   
    11     5    29 1   
    12     5    30 1   
    13     5    31 1   
    14     6     7 ar  
    15     6     9 ar  
    16     7     8 ar  
    17     7    32 1   
    18     8    11 ar  
    19     8    33 1   
    20     9    10 ar  
    21     9    34 1   
    22    10    11 ar  
    23    10    35 1   
    24    11    12 1   
    25    12    13 2   
    26    12    23 1   
    27    13    14 1   
    28    14    15 ar  
    29    14    20 ar  
    30    15    16 ar  
    31    15    36 1   
    32    16    17 1   
    33    16    18 ar  
    34    18    19 ar  
    35    18    37 1   
    36    19    20 ar  
    37    19    38 1   
    38    20    21 1   
    39    21    22 2   
    40    21    23 1   
    41    23    39 1   
@<TRIPOS>SUBSTRUCTURE
     1 9CB         1 TEMP              0 ****  ****    0 ROOT
