@<TRIPOS>MOLECULE
molecule
   39    41     1     0     0
SMALL
bcc


@<TRIPOS>ATOM
      1 OAE          0.0000     0.0000     0.0000 oh         1 9CB      -0.609800
      2 CAD          1.4280     0.0000     0.0000 c3         1 9CB       0.113400
      3 CAC          1.9390     0.0000     1.4420 c3         1 9CB       0.233800
      4 NAB          1.5510    -1.2520     2.0980 nh         1 9CB      -0.715000
      5 CAA          0.2740    -1.3410     2.8090 c3         1 9CB       0.232100
      6 CAF          2.3980    -2.3560     2.0440 ca         1 9CB       0.233600
      7 CAK          3.6130    -2.2680     1.3730 ca         1 9CB      -0.221500
      8 CAJ          4.4520    -3.3590     1.3200 ca         1 9CB      -0.036000
      9 CAG          2.0280    -3.5450     2.6670 ca         1 9CB      -0.221500
     10 CAH          2.8620    -4.6380     2.6170 ca         1 9CB      -0.036000
     11 CAI          4.0810    -4.5550     1.9390 ca         1 9CB      -0.225900
     12 CAL          4.9780    -5.7250     1.8830 cc         1 9CB       0.582500
     13 NAM          6.1150    -5.6110     1.2440 nd         1 9CB      -0.666100
     14 CAN          6.9820    -6.6390     1.1530 ca         1 9CB       0.220400
     15 CAT          8.1940    -6.5130     0.4700 ca         1 9CB      -0.128000
     16 CAR          9.0540    -7.5870     0.4000 ca         1 9CB       0.066400
     17 Cl          10.5590    -7.4290    -0.4490 cl         1 9CB      -0.103400
     18 CAQ          8.7300    -8.7990     1.0010 ca         1 9CB      -0.159000
     19 CAP          7.5390    -8.9470     1.6790 ca         1 9CB      -0.039000
     20 CAO          6.6560    -7.8720     1.7630 ca         1 9CB      -0.219600
     21 CAU          5.3750    -7.9780     2.4740 c          1 9CB       0.711100
     22 OAV          5.0380    -9.0130     3.0200 o          1 9CB      -0.625500
     23 NAW          4.5860    -6.8790     2.5060 ns         1 9CB      -0.473400
     24 H1          -0.3140     0.2670    -0.8480 ho         1 9CB       0.405000
     25 H2           1.7890     0.8840    -0.5110 h1         1 9CB       0.031700
     26 H3           1.7890    -0.8840    -0.5110 h1         1 9CB       0.031700
     27 H4           3.0190     0.0880     1.4420 h1         1 9CB       0.061700
     28 H5           1.5080     0.8370     1.9780 h1         1 9CB       0.061700
     29 H6          -0.3500    -2.0900     2.3370 h1         1 9CB       0.041367
     30 H7           0.4530    -1.6170     3.8400 h1         1 9CB       0.041367
     31 H8          -0.2270    -0.3810     2.7740 h1         1 9CB       0.041367
     32 H9           3.9000    -1.3410     0.8930 ha         1 9CB       0.139000
     33 H10          5.3980    -3.2900     0.7950 ha         1 9CB       0.142000
     34 H11          1.0820    -3.6100     3.1930 ha         1 9CB       0.139000
     35 H12          2.5730    -5.5630     3.1000 ha         1 9CB       0.142000
     36 H13          8.4990    -5.5490     0.0800 ha         1 9CB       0.161000
     37 H14          9.4180    -9.6320     0.9360 ha         1 9CB       0.148000
     38 H15          7.2920    -9.8930     2.1460 ha         1 9CB       0.159000
     39 H16          3.7090    -6.9100     2.9880 hn         1 9CB       0.340500
@<TRIPOS>BOND
     1     1     2 1
     2     2     3 1
     3     3     4 1
     4     5     4 1
     5     4     6 1
     6     6     9 ar
     7     6     7 ar
     8     9    10 ar
     9     7     8 ar
    10    10    11 ar
    11     8    11 ar
    12    11    12 1
    13    12    13 2
    14    12    23 1
    15    13    14 1
    16    23    21 1
    17    14    15 ar
    18    14    20 ar
    19    15    16 ar
    20    21    20 1
    21    21    22 2
    22    20    19 ar
    23    16    17 1
    24    16    18 ar
    25    19    18 ar
    26     1    24 1
    27     2    25 1
    28     2    26 1
    29     3    27 1
    30     3    28 1
    31     5    29 1
    32     5    30 1
    33     5    31 1
    34     7    32 1
    35     8    33 1
    36     9    34 1
    37    10    35 1
    38    15    36 1
    39    18    37 1
    40    19    38 1
    41    23    39 1
@<TRIPOS>SUBSTRUCTURE
     1 9CB         1 TEMP              0 ****  ****    0 ROOT
