@<TRIPOS>MOLECULE
molecule
   41    43     1     0     0
SMALL
bcc


@<TRIPOS>ATOM
      1 C1           0.0000     0.0000     0.0000 ca         1 9CC       0.197100
      2 C8          -2.1680     0.0080     1.2380 c          1 9CC       0.743200
      3 C4           1.3870    -0.0020     2.4130 ca         1 9CC      -0.188000
      4 C3           2.0760     0.0000     1.2030 ca         1 9CC       0.161100
      5 C7          -2.1520     0.5040     3.5520 c3         1 9CC       0.162100
      6 C6          -0.7260    -0.0120     3.7410 c3         1 9CC      -0.073100
      7 C2           1.3840     0.0000     0.0000 ca         1 9CC      -0.233000
      8 C5           0.0100    -0.0040     2.4270 ca         1 9CC      -0.012300
      9 C9          -0.6930    -0.0000     1.2190 ca         1 9CC      -0.215600
     10 C10         -2.9600     0.2510     4.8280 c3         1 9CC      -0.070400
     11 C11         -4.3480     0.8790     4.6860 c3         1 9CC       0.144100
     12 C12         -6.3750     0.7410     3.4100 c3         1 9CC       0.145100
     13 C13         -7.2180     0.5910     4.6790 c3         1 9CC      -0.113400
     14 C14         -6.5200     1.3120     5.8360 c3         1 9CC      -0.081400
     15 O3          -2.7740    -0.1950     2.4360 os         1 9CC      -0.395900
     16 C15         -5.1100     0.7350     6.0040 c3         1 9CC      -0.112400
     17 C16         -6.2680     2.2220     3.0400 c3         1 9CC      -0.130100
     18 O5          -5.0670     0.2130     3.6460 os         1 9CC      -0.392600
     19 O4          -2.8140     0.1890     0.2240 o          1 9CC      -0.541500
     20 O2           3.4330     0.0030     1.2000 oh         1 9CC      -0.521100
     21 O1          -0.6830     0.0040    -1.1720 oh         1 9CC      -0.482100
     22 H1           1.9360    -0.0020     3.3460 ha         1 9CC       0.146000
     23 H2          -2.1250     1.5660     3.3410 h1         1 9CC       0.052700
     24 H3          -0.7720    -1.0310     4.1060 hc         1 9CC       0.071200
     25 H4          -0.2090     0.6430     4.4320 hc         1 9CC       0.071200
     26 H5           1.9270     0.0020    -0.9380 ha         1 9CC       0.152000
     27 H6          -3.0600    -0.8160     4.9860 hc         1 9CC       0.065200
     28 H7          -2.4470     0.6950     5.6730 hc         1 9CC       0.065200
     29 H8          -4.2510     1.9300     4.4400 h1         1 9CC       0.037700
     30 H9          -6.8420     0.1940     2.6010 h1         1 9CC       0.083700
     31 H10         -8.1950     1.0310     4.5170 hc         1 9CC       0.050200
     32 H11         -7.3240    -0.4600     4.9200 hc         1 9CC       0.050200
     33 H12         -7.0840     1.1610     6.7480 hc         1 9CC       0.043200
     34 H13         -6.4540     2.3700     5.6150 hc         1 9CC       0.043200
     35 H14         -4.5890     1.2780     6.7840 hc         1 9CC       0.048200
     36 H15         -5.1780    -0.3130     6.2690 hc         1 9CC       0.048200
     37 H16         -7.2460     2.5940     2.7560 hc         1 9CC       0.043033
     38 H17         -5.9020     2.7820     3.8920 hc         1 9CC       0.043033
     39 H18         -5.5830     2.3380     2.2090 hc         1 9CC       0.043033
     40 H19          3.7460     0.8930     1.1990 ho         1 9CC       0.428000
     41 H20         -0.4180    -0.7360    -1.6930 ho         1 9CC       0.427000
@<TRIPOS>BOND
     1    21     1 1
     2    19     2 2
     3     1     7 ar
     4     1     9 ar
     5     7     4 ar
     6     2     9 1
     7     2    15 1
     8     9     8 ar
     9    15     5 1
    10     4    20 1
    11     4     3 ar
    12     8     3 ar
    13     8     6 1
    14     5     6 1
    15     5    10 1
    16    10    11 1
    17    11    16 1
    18    11    18 1
    19    16    14 1
    20    18    12 1
    21    14    13 1
    22    12    13 1
    23    12    17 1
    24     3    22 1
    25     5    23 1
    26     6    24 1
    27     6    25 1
    28     7    26 1
    29    10    27 1
    30    10    28 1
    31    11    29 1
    32    12    30 1
    33    13    31 1
    34    13    32 1
    35    14    33 1
    36    14    34 1
    37    16    35 1
    38    16    36 1
    39    17    37 1
    40    17    38 1
    41    17    39 1
    42    20    40 1
    43    21    41 1
@<TRIPOS>SUBSTRUCTURE
     1 9CC         1 TEMP              0 ****  ****    0 ROOT
