@<TRIPOS>MOLECULE
9CD
   34    36     1     0     0
SMALL
bcc


@<TRIPOS>ATOM
      1 O01          0.0000     0.0000     0.0000 oh         1 9CD      -0.307000
      2 C02          1.4280     0.0000     0.0000 c3         1 9CD       0.050000
      3 C03          1.9410     0.0000     1.4430 c3         1 9CD       0.025000
      4 O04          1.5300     1.2020     2.0970 oh         1 9CD      -0.313000
      5 C05          3.4700    -0.0790     1.4340 c3         1 9CD       0.064000
      6 C06          3.9860    -0.1400     2.8730 c3         1 9CD       0.075000
      7 O07          5.4150    -0.0970     2.8680 oh         1 9CD      -0.312000
      8 O08          3.8800    -1.2530     0.7300 os         1 9CD      -0.269000
      9 C09          3.4700    -1.2860    -0.6390 c3         1 9CD       0.210000
     10 C10          1.9410    -1.2550    -0.7130 c3         1 9CD      -0.103000
     11 N11          1.5190    -1.2300    -2.1150 n7         1 9CD      -0.017000
     12 C12          1.3930    -2.3820    -2.8020 c3         1 9CD       0.353000
     13 C13          0.9690    -2.3550    -4.2100 c2         1 9CD      -0.174000
     14 C14          0.8460    -3.4930    -4.8890 c2         1 9CD      -0.038000
     15 C15          0.4120    -3.4660    -6.3320 DU         1 9CD      -0.025000
     16 O16          1.6310    -3.4430    -2.2580 o          1 9CD      -0.414000
     17 H1          -0.3140     0.8420    -0.2840 ho         1 9CD       0.195000
     18 H2           1.7950     0.8810    -0.5130 h1         1 9CD       0.052000
     19 H3           1.5400    -0.8580     1.9680 h1         1 9CD       0.070000
     20 H4           0.8110     1.0140     2.6770 ho         1 9CD       0.200000
     21 H5           3.8720     0.7960     0.9380 h1         1 9CD       0.065000
     22 H6           3.6540    -1.0610     3.3370 h1         1 9CD       0.038000
     23 H7           3.6010     0.7050     3.4310 h1         1 9CD       0.038000
     24 H8           5.7330    -0.0860     3.7550 ho         1 9CD       0.189000
     25 H9           3.8720    -0.4220    -1.1550 h2         1 9CD       0.024000
     26 H11          1.5400    -2.1350    -0.2250 h1         1 9CD       0.126000
     27 H12          1.3440    -0.3550    -2.5690 hn         1 9CD       0.088000
     28 H13          0.3200    -2.6080    -3.3810 DU         1 9CD       0.017000
     29 H14         -0.1770    -3.3570    -5.2180 DU         1 9CD       0.039000
     30 H15          1.2780    -3.5810    -6.9720 ha         1 9CD       0.042667
     31 H16         -0.2820    -4.2770    -6.5160 ha         1 9CD       0.042667
     32 H17         -0.0720    -2.5210    -6.5460 ha         1 9CD       0.042667
     33 O1           3.9530    -2.4830    -1.2520 oh         1 9CD      -0.269000
     34 H10          4.8940    -2.4530    -1.3030 ho         1 9CD       0.194000
@<TRIPOS>BOND
     1     1     2 1   
     2     1    17 1   
     3     2     3 1   
     4     2    10 1   
     5     2    18 1   
     6     3     4 1   
     7     3     5 1   
     8     3    19 1   
     9     4    20 1   
    10     5     6 1   
    11     5     8 1   
    12     5    21 1   
    13     6     7 1   
    14     6    22 1   
    15     6    23 1   
    16     7    24 1   
    17     8     9 1   
    18     9    10 1   
    19     9    25 1   
    20     9    33 1   
    21    10    11 1   
    22    10    26 1   
    23    11    12 1   
    24    11    27 1   
    25    12    13 1   
    26    12    16 1   
    27    12    28 1   
    28    13    14 1   
    29    13    28 1   
    30    14    15 1   
    31    14    29 1   
    32    15    29 1   
    33    15    30 1   
    34    15    31 1   
    35    15    32 1   
    36    33    34 1   
@<TRIPOS>SUBSTRUCTURE
     1 9CD         1 TEMP              0 ****  ****    0 ROOT
