@<TRIPOS>MOLECULE
molecule
   34    34     1     0     0
SMALL
bcc


@<TRIPOS>ATOM
      1 O01          0.0000     0.0000     0.0000 oh         1 9CD      -0.592800
      2 C02          1.4280     0.0000     0.0000 c3         1 9CD       0.118100
      3 C03          1.9410     0.0000     1.4430 c3         1 9CD       0.098100
      4 O04          1.5300     1.2020     2.0970 oh         1 9CD      -0.605800
      5 C05          3.4700    -0.0790     1.4340 c3         1 9CD       0.156100
      6 C06          3.9860    -0.1400     2.8730 c3         1 9CD       0.151400
      7 O07          5.4150    -0.0970     2.8680 oh         1 9CD      -0.600800
      8 O08          3.8800    -1.2530     0.7300 os         1 9CD      -0.428600
      9 C09          3.4700    -1.2860    -0.6390 c3         1 9CD       0.333900
     10 C10          1.9410    -1.2550    -0.7130 c3         1 9CD       0.092700
     11 N11          1.5190    -1.2300    -2.1150 ns         1 9CD      -0.575900
     12 C12          1.3930    -2.3820    -2.8020 c          1 9CD       0.668300
     13 C13          0.9690    -2.3550    -4.2100 ce         1 9CD      -0.262200
     14 C14          0.8460    -3.4930    -4.8890 c2         1 9CD      -0.083200
     15 C15          0.4120    -3.4660    -6.3320 c3         1 9CD      -0.072900
     16 O16          1.6310    -3.4430    -2.2580 o          1 9CD      -0.588100
     17 H1          -0.3140     0.8460    -0.2730 ho         1 9CD       0.409000
     18 H2           1.7950     0.8810    -0.5130 h1         1 9CD       0.043700
     19 H3           1.5400    -0.8580     1.9680 h1         1 9CD       0.065700
     20 H4           0.7970     1.0180     2.6610 ho         1 9CD       0.415000
     21 H5           3.8720     0.7960     0.9380 h1         1 9CD       0.058700
     22 H6           3.6540    -1.0610     3.3370 h1         1 9CD       0.037700
     23 H7           3.6010     0.7050     3.4310 h1         1 9CD       0.037700
     24 H8           5.7310    -0.0460     3.7550 ho         1 9CD       0.404000
     25 H9           3.8720    -0.4220    -1.1550 h2         1 9CD       0.019700
     26 H11          1.5400    -2.1350    -0.2250 h1         1 9CD       0.115700
     27 H12          1.3430    -0.3550    -2.5690 hn         1 9CD       0.308500
     28 H13          0.7580    -1.4100    -4.6950 ha         1 9CD       0.122000
     29 H14          1.0580    -4.4390    -4.4050 ha         1 9CD       0.155000
     30 H15          0.3720    -4.4780    -6.7160 hc         1 9CD       0.047367
     31 H16         -0.5690    -3.0130    -6.4060 hc         1 9CD       0.047367
     32 H17          1.1210    -2.8880    -6.9120 hc         1 9CD       0.047367
     33 O1           3.9530    -2.4830    -1.2520 oh         1 9CD      -0.552800
     34 H10          4.8860    -2.4210    -1.3710 ho         1 9CD       0.410000
@<TRIPOS>BOND
     1     1     2 1
     2    14    15 1
     3    14    13 2
     4    16    12 2
     5     4     3 1
     6     3     2 1
     7     3     5 1
     8     2    10 1
     9    12    13 1
    10    12    11 1
    11    10    11 1
    12    10     9 1
    13     7     6 1
    14     8     5 1
    15     8     9 1
    16     5     6 1
    17     1    17 1
    18     2    18 1
    19     3    19 1
    20     4    20 1
    21     5    21 1
    22     6    22 1
    23     6    23 1
    24     7    24 1
    25     9    25 1
    26    10    26 1
    27    11    27 1
    28    13    28 1
    29    14    29 1
    30    15    30 1
    31    15    31 1
    32    15    32 1
    33     9    33 1
    34    33    34 1
@<TRIPOS>SUBSTRUCTURE
     1 9CD         1 TEMP              0 ****  ****    0 ROOT
