@<TRIPOS>MOLECULE
molecule
   29    31     1     0     0
SMALL
bcc


@<TRIPOS>ATOM
      1 NAR          0.0000     0.0000     0.0000 ns         1 9CE      -0.473400
      2 CAP          1.3530     0.0000     0.0000 c          1 9CE       0.709100
      3 OAQ          1.9840     0.0010    -1.0410 o          1 9CE      -0.627500
      4 CAK          2.0320     0.0000     1.3040 ca         1 9CE      -0.212600
      5 CAL          3.4220     0.0000     1.4080 ca         1 9CE      -0.049000
      6 CAM          4.0100    -0.0000     2.6540 ca         1 9CE      -0.159000
      7 CAN          3.2300    -0.0000     3.8030 ca         1 9CE      -0.091000
      8 CAO          1.8570    -0.0000     3.7240 ca         1 9CE      -0.129000
      9 CAJ          1.2350     0.0000     2.4720 ca         1 9CE       0.199400
     10 NAI         -0.1070    -0.0010     2.3520 nc         1 9CE      -0.643100
     11 CAH         -0.6930     0.0050     1.1810 cd         1 9CE       0.567500
     12 CAG         -2.1670     0.0050     1.1310 ca         1 9CE      -0.195900
     13 CAF         -2.8290     0.1360    -0.0920 ca         1 9CE      -0.092000
     14 CAE         -4.2070     0.1340    -0.1320 ca         1 9CE      -0.157000
     15 CAD         -4.9400     0.0040     1.0360 ca         1 9CE      -0.085000
     16 CAC         -4.3010    -0.1270     2.2520 ca         1 9CE      -0.179000
     17 CAB         -2.9130    -0.1330     2.3110 ca         1 9CE       0.240600
     18 NAA         -2.2660    -0.2630     3.5350 nv         1 9CE      -0.937200
     19 H1          -0.4970     0.0050    -0.8690 hn         1 9CE       0.338500
     20 H2           4.0360     0.0000     0.5150 ha         1 9CE       0.154000
     21 H3           5.0900    -0.0000     2.7380 ha         1 9CE       0.135000
     22 H4           3.7100    -0.0010     4.7740 ha         1 9CE       0.133000
     23 H5           1.2600    -0.0000     4.6280 ha         1 9CE       0.145000
     24 H6          -2.2600     0.2380    -1.0090 ha         1 9CE       0.125000
     25 H7          -4.7190     0.2350    -1.0810 ha         1 9CE       0.135000
     26 H8          -6.0220     0.0050     0.9940 ha         1 9CE       0.133000
     27 H9          -4.8820    -0.2300     3.1600 ha         1 9CE       0.140000
     28 H10         -1.6890    -1.0610     3.7120 hn         1 9CE       0.437800
     29 H11         -2.4440     0.3960     4.2660 hn         1 9CE       0.437800
@<TRIPOS>BOND
     1    15    16 ar
     2    15    14 ar
     3    16    17 ar
     4    14    13 ar
     5    17    18 1
     6    17    12 ar
     7    13    12 ar
     8    12    11 1
     9    11    10 2
    10    11     1 1
    11    10     9 1
    12     1     2 1
    13     9     8 ar
    14     9     4 ar
    15     8     7 ar
    16     2     4 1
    17     2     3 2
    18     4     5 ar
    19     7     6 ar
    20     5     6 ar
    21     1    19 1
    22     5    20 1
    23     6    21 1
    24     7    22 1
    25     8    23 1
    26    13    24 1
    27    14    25 1
    28    15    26 1
    29    16    27 1
    30    18    28 1
    31    18    29 1
@<TRIPOS>SUBSTRUCTURE
     1 9CE         1 TEMP              0 ****  ****    0 ROOT
