@<TRIPOS>MOLECULE
molecule
   41    43     1     0     0
SMALL
bcc


@<TRIPOS>ATOM
      1 C15          0.0000     0.0000     0.0000 c3         1 9CF      -0.113400
      2 C14          1.5320     0.0000     0.0000 c3         1 9CF      -0.080400
      3 C13          2.0310     0.0000     1.4490 c3         1 9CF      -0.114400
      4 C12          1.4490    -1.2130     2.1800 c3         1 9CF       0.144100
      5 C16          1.8950    -1.1880     3.6440 c3         1 9CF      -0.084100
      6 O5           0.0220    -1.1670     2.1160 os         1 9CF      -0.396600
      7 C11         -0.5020    -1.2120     0.7870 c3         1 9CF       0.149100
      8 C10         -2.0320    -1.1860     0.8430 c3         1 9CF      -0.071400
      9 C7          -2.5390    -2.4600     1.5210 c3         1 9CF       0.163100
     10 C6          -4.0680    -2.4910     1.4700 c3         1 9CF      -0.073100
     11 O3          -2.1040    -2.4780     2.9120 os         1 9CF      -0.395900
     12 C8          -2.4530    -3.5980     3.5960 c          1 9CF       0.743200
     13 O4          -1.6780    -4.1400     4.3600 o          1 9CF      -0.541500
     14 C9          -3.8110    -4.1280     3.3740 ca         1 9CF      -0.215600
     15 C5          -4.5960    -3.5980     2.3430 ca         1 9CF      -0.011300
     16 C4          -5.8540    -4.0910     2.1300 ca         1 9CF      -0.188000
     17 C3          -6.3560    -5.1120     2.9310 ca         1 9CF       0.161100
     18 O2          -7.6060    -5.5910     2.7070 oh         1 9CF      -0.521100
     19 C2          -5.5890    -5.6430     3.9560 ca         1 9CF      -0.233000
     20 C1          -4.3120    -5.1550     4.1850 ca         1 9CF       0.198100
     21 O1          -3.5540    -5.6660     5.1870 oh         1 9CF      -0.482100
     22 H1          -0.3610     0.9080     0.4670 hc         1 9CF       0.048200
     23 H2          -0.3610    -0.0570    -1.0200 hc         1 9CF       0.048200
     24 H3           1.8940    -0.8870    -0.5070 hc         1 9CF       0.042200
     25 H4           1.8940     0.8870    -0.5070 hc         1 9CF       0.042200
     26 H5           3.1120    -0.0580     1.4580 hc         1 9CF       0.050700
     27 H6           1.7070     0.9090     1.9420 hc         1 9CF       0.050700
     28 H7           1.8010    -2.1210     1.7060 h1         1 9CF       0.032700
     29 H8           1.3830    -0.3870     4.1640 hc         1 9CF       0.045700
     30 H9           2.9650    -1.0240     3.6930 hc         1 9CF       0.045700
     31 H10          1.6530    -2.1340     4.1120 hc         1 9CF       0.045700
     32 H11         -0.1690    -2.1200     0.3000 h1         1 9CF       0.033700
     33 H12         -2.4290    -1.1300    -0.1630 hc         1 9CF       0.065700
     34 H13         -2.3580    -0.3220     1.4090 hc         1 9CF       0.065700
     35 H14         -2.1440    -3.3290     1.0100 h1         1 9CF       0.053700
     36 H15         -4.4560    -1.5430     1.8220 hc         1 9CF       0.069700
     37 H16         -4.3870    -2.6590     0.4490 hc         1 9CF       0.069700
     38 H17         -6.4630    -3.6840     1.3320 ha         1 9CF       0.145000
     39 H18         -7.5630    -6.3070     2.0950 ho         1 9CF       0.427000
     40 H19         -5.9860    -6.4370     4.5770 ha         1 9CF       0.152000
     41 H20         -4.0200    -5.5920     6.0040 ho         1 9CF       0.428000
@<TRIPOS>BOND
     1     5     4 1
     2     3     4 1
     3     3     2 1
     4     4     6 1
     5     2     1 1
     6     6     7 1
     7     1     7 1
     8     7     8 1
     9     8     9 1
    10    10     9 1
    11    10    15 1
    12     9    11 1
    13    16    15 ar
    14    16    17 ar
    15    15    14 ar
    16    11    12 1
    17    18    17 1
    18    17    19 ar
    19    14    12 1
    20    14    20 ar
    21    12    13 2
    22    19    20 ar
    23    20    21 1
    24     1    22 1
    25     1    23 1
    26     2    24 1
    27     2    25 1
    28     3    26 1
    29     3    27 1
    30     4    28 1
    31     5    29 1
    32     5    30 1
    33     5    31 1
    34     7    32 1
    35     8    33 1
    36     8    34 1
    37     9    35 1
    38    10    36 1
    39    10    37 1
    40    16    38 1
    41    18    39 1
    42    19    40 1
    43    21    41 1
@<TRIPOS>SUBSTRUCTURE
     1 9CF         1 TEMP              0 ****  ****    0 ROOT
