@<TRIPOS>MOLECULE
molecule
   22    24     1     0     0
SMALL
bcc


@<TRIPOS>ATOM
      1 C10          0.0000     0.0000     0.0000 ca         1 9CG      -0.083000
      2 C11          1.3630     0.0000     0.0000 ca         1 9CG      -0.143000
      3 C02          2.1550     0.0070     3.6970 c          1 9CG       0.759200
      4 C04          0.1080    -0.1230     4.9340 c3         1 9CG       0.211700
      5 C05         -0.6790    -0.0490     3.6540 ca         1 9CG      -0.126300
      6 C06         -2.0400    -0.0090     3.6570 ca         1 9CG      -0.101000
      7 C07         -2.7540     0.0370     2.4590 ca         1 9CG      -0.128000
      8 C08         -2.1240     0.0240     1.2520 ca         1 9CG      -0.102000
      9 C09         -0.7190     0.0020     1.2070 ca         1 9CG      -0.043000
     10 C12          2.1050     0.0000     1.1800 ca         1 9CG      -0.042000
     11 C13          1.4570    -0.0070     2.3970 ca         1 9CG      -0.181600
     12 C14         -0.0060    -0.0180     2.4250 ca         1 9CG      -0.002000
     13 O01          3.3100    -0.3520     3.8130 o          1 9CG      -0.557500
     14 O03          1.4260     0.4500     4.7590 os         1 9CG      -0.429900
     15 H1          -0.5350    -0.0000    -0.9420 ha         1 9CG       0.136000
     16 H2           1.8870     0.0000    -0.9480 ha         1 9CG       0.136000
     17 H3          -0.4180     0.4250     5.7070 h1         1 9CG       0.069200
     18 H4           0.2080    -1.1600     5.2310 h1         1 9CG       0.069200
     19 H5          -2.5740     0.0030     4.6000 ha         1 9CG       0.133000
     20 H6          -3.8360     0.0850     2.4910 ha         1 9CG       0.134000
     21 H7          -2.6990     0.0610     0.3350 ha         1 9CG       0.137000
     22 H8           3.1870    -0.0000     1.1400 ha         1 9CG       0.154000
@<TRIPOS>BOND
     1     4    14 1
     2     4     5 1
     3     6     5 ar
     4     6     7 ar
     5    14     3 1
     6     5    12 ar
     7     7     8 ar
     8     3    13 2
     9     3    11 1
    10    12    11 ar
    11    12     9 ar
    12     8     9 ar
    13    11    10 ar
    14     9     1 ar
    15    10     2 ar
    16     1     2 ar
    17     1    15 1
    18     2    16 1
    19     4    17 1
    20     4    18 1
    21     6    19 1
    22     7    20 1
    23     8    21 1
    24    10    22 1
@<TRIPOS>SUBSTRUCTURE
     1 9CG         1 TEMP              0 ****  ****    0 ROOT
