@<TRIPOS>MOLECULE
9CJ
   45    47     1     0     0
SMALL
bcc


@<TRIPOS>ATOM
      1 O4           0.0000     0.0000     0.0000 o          1 9CJ      -0.606100
      2 C7           1.2130     0.0000     0.0000 c          1 9CJ       0.550100
      3 C6           1.9670     0.0000     1.3040 c3         1 9CJ      -0.043100
      4 C5           0.9890     0.0010     2.4500 ca         1 9CJ      -0.027300
      5 C4           0.5390    -1.1960     2.9760 ca         1 9CJ      -0.131000
      6 C3          -0.3580    -1.1980     4.0280 ca         1 9CJ      -0.058000
      7 C2          -0.8090    -0.0040     4.5560 ca         1 9CJ      -0.214000
      8 C20          0.5460     1.1980     2.9780 ca         1 9CJ      -0.121000
      9 C1          -0.3590     1.1980     4.0300 ca         1 9CJ       0.156100
     10 O           -0.8000     2.3750     4.5470 os         1 9CJ      -0.303900
     11 C           -1.7270     2.2990     5.6330 c3         1 9CJ       0.244700
     12 N            1.8870    -0.0060    -1.1680 ns         1 9CJ      -0.037100
     13 C8           1.1880    -0.1040    -2.3790 ca         1 9CJ      -0.132400
     14 C13         -0.0500     0.5040    -2.5140 ca         1 9CJ      -0.063000
     15 C12         -0.7420     0.4060    -3.7190 cp         1 9CJ      -0.114500
     16 C11         -0.1840    -0.3050    -4.7850 ca         1 9CJ       0.147100
     17 O3          -0.8540    -0.4040    -5.9630 oh         1 9CJ      -0.461100
     18 C10          1.0550    -0.9090    -4.6380 ca         1 9CJ      -0.180000
     19 C9           1.7400    -0.8050    -3.4440 ca         1 9CJ      -0.117000
     20 C14         -2.0670     1.0530    -3.8700 cp         1 9CJ       0.379800
     21 N1          -3.0850     0.3600    -4.3610 nb         1 9CJ      -0.581000
     22 C18         -4.2810     0.8900    -4.5140 ca         1 9CJ       0.347200
     23 C17         -4.5280     2.2040    -4.1660 ca         1 9CJ      -0.178300
     24 C16         -3.4860     2.9790    -3.6420 ca         1 9CJ      -0.081600
     25 C15         -2.2320     2.3840    -3.4890 ca         1 9CJ      -0.176300
     26 C19         -3.7090     4.3920    -3.2580 c          1 9CJ       0.975200
     27 O2          -2.7940     5.0490    -2.8060 o          1 9CJ      -0.880300
     28 O1          -4.9270     4.9470    -3.4090 o          1 9CJ      -0.880300
     29 H61C         2.5900    -0.8850     1.3610 hc         1 9CJ       0.026700
     30 H62C         2.5910     0.8840     1.3610 hc         1 9CJ       0.026700
     31 H            2.8830     0.0880    -1.1720 hn         1 9CJ       0.156500
     32 H4           0.8910    -2.1340     2.5640 ha         1 9CJ       0.102000
     33 H20          0.8980     2.1350     2.5660 ha         1 9CJ       0.120000
     34 H3          -0.7090    -2.1380     4.4380 ha         1 9CJ       0.094000
     35 H2          -1.5140    -0.0070     5.3780 ha         1 9CJ       0.115000
     36 HC1         -1.2710     1.7690     6.4610 h1         1 9CJ      -0.004967
     37 HC2         -2.6170     1.7710     5.3120 h1         1 9CJ      -0.004967
     38 HC3         -1.9960     3.3000     5.9490 h1         1 9CJ      -0.004967
     39 H13         -0.4780     1.0540    -1.6850 ha         1 9CJ       0.160000
     40 H9           2.7080    -1.2790    -3.3340 ha         1 9CJ       0.092000
     41 H10          1.4890    -1.4590    -5.4640 ha         1 9CJ       0.101000
     42 H15         -1.4000     2.9500    -3.0880 ha         1 9CJ       0.129000
     43 H18         -5.0840     0.2870    -4.9200 h4         1 9CJ      -0.039900
     44 H17         -5.5150     2.6300    -4.2980 ha         1 9CJ       0.133000
     45 H31         -0.2700    -0.2000    -6.6750 ho         1 9CJ       0.384000
@<TRIPOS>BOND
     1     1     2 2   
     2     2     3 1   
     3     2    12 1   
     4     3     4 1   
     5     3    29 1   
     6     3    30 1   
     7     4     5 ar  
     8     4     8 ar  
     9     5     6 ar  
    10     5    32 1   
    11     6     7 ar  
    12     6    34 1   
    13     7     9 ar  
    14     7    35 1   
    15     8     9 ar  
    16     8    33 1   
    17     9    10 1   
    18    10    11 1   
    19    11    36 1   
    20    11    37 1   
    21    11    38 1   
    22    12    13 1   
    23    12    31 1   
    24    13    14 ar  
    25    13    19 ar  
    26    14    15 ar  
    27    14    39 1   
    28    15    16 ar  
    29    15    20 1   
    30    16    17 1   
    31    16    18 ar  
    32    17    45 1   
    33    18    19 ar  
    34    18    41 1   
    35    19    40 1   
    36    20    21 ar  
    37    20    25 ar  
    38    21    22 ar  
    39    22    23 ar  
    40    22    43 1   
    41    23    24 ar  
    42    23    44 1   
    43    24    25 ar  
    44    24    26 1   
    45    25    42 1   
    46    26    27 1   
    47    26    28 1   
@<TRIPOS>SUBSTRUCTURE
     1 9CJ         1 TEMP              0 ****  ****    0 ROOT
