@<TRIPOS>MOLECULE
9CK
   49    51     1     0     0
SMALL
bcc


@<TRIPOS>ATOM
      1 C10          0.0000     0.0000     0.0000 c3         1 9CK      -0.033000
      2 N12          2.1810    -0.1100    -1.1610 n          1 9CK      -0.044200
      3 C15         -0.6110    -0.4970    -3.3090 ca         1 9CK      -0.117000
      4 C17         -2.1880     1.3050    -3.3770 ca         1 9CK      -0.091000
      5 C21          2.5510    -0.7170    -3.4000 c3         1 9CK       0.203800
      6 C22          3.8220    -1.0530    -2.6020 c3         1 9CK      -0.045400
      7 C26         -4.0450     1.1980     5.3360 ca         1 9CK      -0.079500
      8 C02         -4.3680    -0.0020     7.3880 ca         1 9CK       0.037600
      9 C03         -4.2610    -1.2040     6.6990 ca         1 9CK      -0.116500
     10 C04         -4.0440    -1.1990     5.3360 ca         1 9CK      -0.079500
     11 C05         -3.9380    -0.0010     4.6540 ca         1 9CK      -0.130300
     12 C06         -3.7030    -0.0010     3.1660 c3         1 9CK       0.129300
     13 C08         -1.8130    -0.0000     1.6270 c          1 9CK       0.577100
     14 C11          1.5070     0.0000     0.0000 c          1 9CK       0.593100
     15 C14          0.3360     0.3560    -2.7560 ca         1 9CK       0.074600
     16 C16         -1.8700    -0.0190    -3.6190 ca         1 9CK      -0.066000
     17 C18         -1.2450     2.1580    -2.8320 ca         1 9CK      -0.061000
     18 C19          0.0150     1.6870    -2.5190 ca         1 9CK      -0.001900
     19 C23          3.6420    -0.2400    -1.3000 c3         1 9CK       0.061000
     20 C27         -4.2610     1.2010     6.7000 ca         1 9CK      -0.116500
     21 N07         -2.2630    -0.0000     2.8990 ns         1 9CK      -0.220900
     22 N09         -0.4880     0.0000     1.3820 ns         1 9CK      -0.206900
     23 N13          1.6100    -0.1250    -2.4400 nh         1 9CK      -0.326000
     24 O24          2.1130     0.1000     1.0460 o          1 9CK      -0.659100
     25 O25         -2.6030    -0.0010     0.7030 o          1 9CK      -0.720100
     26 Br           1.3040     2.8540    -1.7750 br         1 9CK      -0.115100
     27 H1          -0.3610     0.8850    -0.5110 h1         1 9CK       0.053200
     28 H2          -0.3610    -0.8850    -0.5110 h1         1 9CK       0.053200
     29 H3          -0.3630    -1.5350    -3.4970 ha         1 9CK       0.115000
     30 H4          -3.1760     1.6760    -3.6220 ha         1 9CK       0.110000
     31 H5           2.7820    -0.0040    -4.1830 h1         1 9CK       0.014200
     32 H6           2.1290    -1.6210    -3.8240 h1         1 9CK       0.014200
     33 H7           4.7060    -0.7260    -3.1360 hc         1 9CK       0.029700
     34 H8           3.8670    -2.1140    -2.3860 hc         1 9CK       0.029700
     35 H9          -3.9610     2.1350     4.8000 ha         1 9CK       0.107500
     36 H10         -4.3440    -2.1430     7.2320 ha         1 9CK       0.109000
     37 H11         -3.9600    -2.1360     4.7990 ha         1 9CK       0.107500
     38 H12         -4.1510    -0.8850     2.7300 h1         1 9CK       0.026200
     39 H13         -4.1520     0.8840     2.7300 h1         1 9CK       0.026200
     40 H14         -2.6100    -0.6840    -4.0470 ha         1 9CK       0.107000
     41 H15         -1.4980     3.1950    -2.6460 ha         1 9CK       0.118000
     42 H16          4.0560    -0.7800    -0.4570 h1         1 9CK       0.035200
     43 H17          4.1020     0.7360    -1.3970 h1         1 9CK       0.035200
     44 H18         -4.3440     2.1400     7.2340 ha         1 9CK       0.109000
     45 H19         -5.5220    -0.0020     9.1250 hn         1 9CK       0.273800
     46 H20         -3.8100    -0.0030     9.3980 hn         1 9CK       0.273800
     47 H21         -1.6130     0.0000     3.6600 hn         1 9CK       0.173500
     48 H22          0.1620    -0.0440     2.1420 hn         1 9CK       0.194500
     49 N01         -4.5880    -0.0020     8.7670 nv         1 9CK      -0.562200
@<TRIPOS>BOND
     1     1    14 1   
     2     1    22 1   
     3     1    27 1   
     4     1    28 1   
     5     2    14 1   
     6     2    19 1   
     7     2    23 1   
     8     3    15 ar  
     9     3    16 ar  
    10     3    29 1   
    11     4    16 ar  
    12     4    17 ar  
    13     4    30 1   
    14     5     6 1   
    15     5    23 1   
    16     5    31 1   
    17     5    32 1   
    18     6    19 1   
    19     6    33 1   
    20     6    34 1   
    21     7    11 ar  
    22     7    20 ar  
    23     7    35 1   
    24     8     9 ar  
    25     8    20 ar  
    26     8    49 1   
    27     9    10 ar  
    28     9    36 1   
    29    10    11 ar  
    30    10    37 1   
    31    11    12 1   
    32    12    21 1   
    33    12    38 1   
    34    12    39 1   
    35    13    21 1   
    36    13    22 1   
    37    13    25 2   
    38    14    24 2   
    39    15    18 ar  
    40    15    23 1   
    41    16    40 1   
    42    17    18 ar  
    43    17    41 1   
    44    18    26 1   
    45    19    42 1   
    46    19    43 1   
    47    20    44 1   
    48    21    47 1   
    49    22    48 1   
    50    45    49 1   
    51    46    49 1   
@<TRIPOS>SUBSTRUCTURE
     1 9CK         1 TEMP              0 ****  ****    0 ROOT
