@<TRIPOS>MOLECULE
molecule
   49    51     1     0     0
SMALL
bcc


@<TRIPOS>ATOM
      1 C10          0.0000     0.0000     0.0000 c3         1 9CK       0.056000
      2 N12          2.1810    -0.1100    -1.1610 n          1 9CK      -0.296200
      3 C15         -0.6110    -0.4970    -3.3090 ca         1 9CK      -0.146000
      4 C17         -2.1880     1.3050    -3.3770 ca         1 9CK      -0.127000
      5 C21          2.5510    -0.7170    -3.4000 c3         1 9CK       0.259800
      6 C22          3.8220    -1.0530    -2.6020 c3         1 9CK      -0.111400
      7 C26         -4.0450     1.1980     5.3360 ca         1 9CK      -0.107500
      8 C02         -4.3680    -0.0020     7.3880 ca         1 9CK       0.172600
      9 C03         -4.2610    -1.2040     6.6990 ca         1 9CK      -0.148500
     10 C04         -4.0440    -1.1990     5.3360 ca         1 9CK      -0.107500
     11 C05         -3.9380    -0.0010     4.6540 ca         1 9CK      -0.127300
     12 C06         -3.7030    -0.0010     3.1660 c3         1 9CK       0.181300
     13 C08         -1.8130    -0.0000     1.6270 c          1 9CK       0.783100
     14 C11          1.5070     0.0000     0.0000 c          1 9CK       0.670100
     15 C14          0.3360     0.3560    -2.7560 ca         1 9CK       0.198600
     16 C16         -1.8700    -0.0190    -3.6190 ca         1 9CK      -0.095000
     17 C18         -1.2450     2.1580    -2.8320 ca         1 9CK      -0.084000
     18 C19          0.0150     1.6870    -2.5190 ca         1 9CK      -0.051900
     19 C23          3.6420    -0.2400    -1.3000 c3         1 9CK       0.117000
     20 C27         -4.2610     1.2010     6.7000 ca         1 9CK      -0.148500
     21 N07         -2.2630    -0.0000     2.8990 ns         1 9CK      -0.602900
     22 N09         -0.4880     0.0000     1.3820 ns         1 9CK      -0.595900
     23 N13          1.6100    -0.1250    -2.4400 nh         1 9CK      -0.562000
     24 O24          2.1130     0.1000     1.0460 o          1 9CK      -0.617100
     25 O25         -2.6030    -0.0010     0.7030 o          1 9CK      -0.669100
     26 Br           1.3040     2.8540    -1.7750 br         1 9CK      -0.082100
     27 H1          -0.3610     0.8850    -0.5110 h1         1 9CK       0.079200
     28 H2          -0.3610    -0.8850    -0.5110 h1         1 9CK       0.079200
     29 H3          -0.3630    -1.5350    -3.4970 ha         1 9CK       0.142000
     30 H4          -3.1760     1.6760    -3.6220 ha         1 9CK       0.140000
     31 H5           2.7820    -0.0040    -4.1830 h1         1 9CK       0.044700
     32 H6           2.1290    -1.6210    -3.8240 h1         1 9CK       0.044700
     33 H7           4.7060    -0.7260    -3.1360 hc         1 9CK       0.062200
     34 H8           3.8670    -2.1140    -2.3860 hc         1 9CK       0.062200
     35 H9          -3.9610     2.1350     4.8000 ha         1 9CK       0.134500
     36 H10         -4.3440    -2.1430     7.2320 ha         1 9CK       0.137000
     37 H11         -3.9600    -2.1360     4.7990 ha         1 9CK       0.134500
     38 H12         -4.1510    -0.8850     2.7300 h1         1 9CK       0.056200
     39 H13         -4.1520     0.8840     2.7300 h1         1 9CK       0.056200
     40 H14         -2.6100    -0.6840    -4.0470 ha         1 9CK       0.139000
     41 H15         -1.4980     3.1950    -2.6460 ha         1 9CK       0.148000
     42 H16          4.0560    -0.7800    -0.4570 h1         1 9CK       0.067700
     43 H17          4.1020     0.7360    -1.3970 h1         1 9CK       0.067700
     44 H18         -4.3440     2.1400     7.2340 ha         1 9CK       0.137000
     45 H19         -5.5220    -0.0020     9.1250 hn         1 9CK       0.428800
     46 H20         -3.8100    -0.0030     9.3980 hn         1 9CK       0.428800
     47 H21         -1.6130     0.0000     3.6600 hn         1 9CK       0.313500
     48 H22          0.1620    -0.0440     2.1420 hn         1 9CK       0.330500
     49 N01         -4.5880    -0.0020     8.7670 nv         1 9CK      -0.992200
@<TRIPOS>BOND
     1    26    18 1
     2    25    13 2
     3    12    21 1
     4    12    11 1
     5    18    17 ar
     6    18    15 ar
     7    17     4 ar
     8    13    21 1
     9    13    22 1
    10     5    23 1
    11     5     6 1
    12     7    11 ar
    13     7    20 ar
    14    11    10 ar
    15     1    22 1
    16     1    14 1
    17    23    15 1
    18    23     2 1
    19    15     3 ar
    20     4    16 ar
    21    20     8 ar
    22     6    19 1
    23     2    14 1
    24     2    19 1
    25    14    24 2
    26    10     9 ar
    27     3    16 ar
    28     8     9 ar
    29     8    49 1
    30     1    27 1
    31     1    28 1
    32     3    29 1
    33     4    30 1
    34     5    31 1
    35     5    32 1
    36     6    33 1
    37     6    34 1
    38     7    35 1
    39     9    36 1
    40    10    37 1
    41    12    38 1
    42    12    39 1
    43    16    40 1
    44    17    41 1
    45    19    42 1
    46    19    43 1
    47    20    44 1
    48    49    45 1
    49    49    46 1
    50    21    47 1
    51    22    48 1
@<TRIPOS>SUBSTRUCTURE
     1 9CK         1 TEMP              0 ****  ****    0 ROOT
