@<TRIPOS>MOLECULE
9CL
   15    15     1     0     0
SMALL
bcc


@<TRIPOS>ATOM
      1 C           0.0120   -0.0060    0.0000 c3        1 9CL      0.085300
      2 C1          1.4950   -0.0120   -0.0000 ca        1 9CL     -0.104300
      3 C2          2.2000   -0.0060    1.2090 ca        1 9CL     -0.109000
      4 C3          3.5940    0.0040    1.2070 ca        1 9CL     -0.131000
      5 C4          4.2920    0.0070   -0.0010 ca        1 9CL     -0.119000
      6 C5          3.5930   -0.0010   -1.2080 ca        1 9CL     -0.131000
      7 C6          2.1990   -0.0110   -1.2100 ca        1 9CL     -0.109000
      8 CL1        -0.6460   -1.6390    0.0090 cl        1 9CL     -0.193400
      9 H          -0.3940    0.4880   -0.9160 h1        1 9CL      0.069700
     10 HA         -0.3930    0.4970    0.9120 h1        1 9CL      0.069700
     11 H2          1.6510   -0.0130    2.1630 ha        1 9CL      0.135000
     12 H3          4.1430    0.0080    2.1600 ha        1 9CL      0.134000
     13 H4          5.3920    0.0150   -0.0010 ha        1 9CL      0.133000
     14 H5          4.1410   -0.0010   -2.1620 ha        1 9CL      0.134000
     15 H6          1.6500   -0.0220   -2.1630 ha        1 9CL      0.135000
@<TRIPOS>BOND
     1    1    2 1   
     2    1    8 1   
     3    1    9 1   
     4    1   10 1   
     5    2    3 ar  
     6    2    7 ar  
     7    3    4 ar  
     8    3   11 1   
     9    4    5 ar  
    10    4   12 1   
    11    5    6 ar  
    12    5   13 1   
    13    6    7 ar  
    14    6   14 1   
    15    7   15 1   
@<TRIPOS>SUBSTRUCTURE
     1 9CL         1 TEMP              0 ****  ****    0 ROOT
