@<TRIPOS>MOLECULE
molecule
   15    15     1     0     0
SMALL
bcc


@<TRIPOS>ATOM
      1 C            0.0000     0.0000     0.0000 c3         1 9CL       0.100300
      2 C1           1.5070     0.0000     0.0000 ca         1 9CL      -0.108300
      3 C2           2.1990     0.0000     1.1970 ca         1 9CL      -0.108000
      4 C3           3.5810     0.0010     1.1970 ca         1 9CL      -0.128500
      5 C4           4.2720     0.0010    -0.0010 ca         1 9CL      -0.119000
      6 C5           3.5800    -0.0010    -1.1980 ca         1 9CL      -0.128500
      7 C6           2.1990    -0.0060    -1.1970 ca         1 9CL      -0.108000
      8 Cl1         -0.6010    -1.7000     0.0090 cl         1 9CL      -0.200400
      9 H           -0.3610     0.5150     0.8820 h1         1 9CL       0.068700
     10 HA          -0.3610     0.5060    -0.8870 h1         1 9CL       0.068700
     11 H2           1.6570     0.0000     2.1350 ha         1 9CL       0.133000
     12 H3           4.1230     0.0020     2.1350 ha         1 9CL       0.132000
     13 H4           5.3550     0.0030    -0.0010 ha         1 9CL       0.131000
     14 H5           4.1220    -0.0040    -2.1360 ha         1 9CL       0.132000
     15 H6           1.6570    -0.0080    -2.1350 ha         1 9CL       0.133000
@<TRIPOS>BOND
     1     2     1 1
     2     1     8 1
     3     1     9 1
     4     1    10 1
     5     3     2 ar
     6     2     7 ar
     7     4     3 ar
     8     3    11 1
     9     4     5 ar
    10     4    12 1
    11     5     6 ar
    12     5    13 1
    13     6     7 ar
    14     6    14 1
    15     7    15 1
@<TRIPOS>SUBSTRUCTURE
     1 9CL         1 TEMP              0 ****  ****    0 ROOT
