@<TRIPOS>MOLECULE
molecule
   31    31     1     0     0
SMALL
bcc


@<TRIPOS>ATOM
      1 C1           0.0000     0.0000     0.0000 c3         1 9CP       0.119900
      2 C2           2.1720     0.0010    -1.1500 c          1 9CP       0.651900
      3 C3           2.1450     0.0000     1.3100 c3         1 9CP       0.099000
      4 O4           4.2340     1.8860     5.5570 o          1 9CP      -0.716533
      5 O5           1.9870     1.4560     6.1220 o          1 9CP      -0.716533
      6 C7          -0.3720     2.4510     2.9210 c3         1 9CP      -0.069900
      7 S            2.8150     2.4310     5.5040 s6         1 9CP       1.539300
      8 O3           2.8890     3.7820     5.9390 o          1 9CP      -0.716533
      9 O2           2.4270     2.4750     4.0320 os         1 9CP      -0.445000
     10 N2           2.1110     1.1650     3.4620 n7         1 9CP      -0.483700
     11 C4           1.7470     1.2840     2.0440 c3         1 9CP       0.149700
     12 N1           1.4700     0.0000     0.0000 n          1 9CP      -0.500800
     13 O1           3.3820    -0.0860    -1.1220 o          1 9CP      -0.543100
     14 C5           0.2700     1.5150     1.9290 c2         1 9CP       0.068600
     15 C6          -0.4940     0.9670     1.0390 c2         1 9CP      -0.337200
     16 C           -0.5020     0.4200    -1.3580 c          1 9CP       0.467100
     17 O            0.0600     1.3050    -1.9660 o          1 9CP      -0.389100
     18 N           -1.5780    -0.1890    -1.8960 nz         1 9CP      -0.686400
     19 H1          -0.3600    -0.9950     0.2330 h1         1 9CP       0.064700
     20 H2           1.6540     0.0320    -2.1010 h5         1 9CP       0.003200
     21 H3           1.8280    -0.8620     1.8840 h1         1 9CP       0.092200
     22 H4           3.2180    -0.0220     1.1680 h1         1 9CP       0.092200
     23 H5           0.2320     3.3460     3.0150 hc         1 9CP       0.074033
     24 H6          -1.3630     2.7190     2.5760 hc         1 9CP       0.074033
     25 H7          -0.4450     1.9620     3.8850 hc         1 9CP       0.074033
     26 H8           2.9050     0.5620     3.5540 hn         1 9CP       0.382800
     27 H9           2.2730     2.1220     1.6040 h1         1 9CP       0.099700
     28 H10         -1.5470     1.2200     1.0430 ha         1 9CP       0.127000
     29 H11         -1.7770     0.2140    -2.7910 hn         1 9CP       0.475133
     30 H12         -1.3880    -1.1660    -2.0060 hn         1 9CP       0.475133
     31 HN3         -2.3670    -0.0680    -1.2930 hn         1 9CP       0.475133
@<TRIPOS>BOND
     1    18    16 1
     2    16    17 2
     3    16     1 1
     4     1    15 1
     5     1    12 1
     6    13     2 2
     7    15    14 2
     8    12     2 1
     9    12     3 1
    10    14     6 1
    11    14    11 1
    12     3    11 1
    13    11    10 1
    14     8     7 1
    15     9    10 1
    16     9     7 1
    17     5     7 1
    18     7     4 1
    19     1    19 1
    20     2    20 1
    21     3    21 1
    22     3    22 1
    23     6    23 1
    24     6    24 1
    25     6    25 1
    26    10    26 1
    27    11    27 1
    28    15    28 1
    29    18    29 1
    30    18    30 1
    31    31    18 1
@<TRIPOS>SUBSTRUCTURE
     1 9CP         1 TEMP              0 ****  ****    0 ROOT
