@<TRIPOS>MOLECULE
molecule
   41    43     1     0     0
SMALL
bcc


@<TRIPOS>ATOM
      1 O            0.0000     0.0000     0.0000 o          1 9CQ      -0.588100
      2 C2           1.2120     0.0000     0.0000 c          1 9CQ       0.658100
      3 N            1.8860     0.0000     1.1670 n          1 9CQ      -0.502800
      4 C1           1.1540     0.0010     2.4360 c3         1 9CQ       0.100800
      5 C            3.3520    -0.0000     1.1670 c3         1 9CQ       0.100800
      6 C3           1.9660    -0.0060    -1.3050 c3         1 9CQ      -0.112100
      7 C4           0.9860    -0.0130    -2.4510 ca         1 9CQ      -0.050300
      8 C9           0.5390     1.1860    -2.9800 ca         1 9CQ      -0.118500
      9 C8          -0.3570     1.1870    -4.0290 ca         1 9CQ      -0.094000
     10 C7          -0.8130    -0.0220    -4.5550 cp         1 9CQ      -0.155500
     11 C6          -0.3580    -1.2260    -4.0160 ca         1 9CQ      -0.094000
     12 C5           0.5430    -1.2140    -2.9720 ca         1 9CQ      -0.118500
     13 C10         -1.7750    -0.0280    -5.6810 cp         1 9CQ       0.557800
     14 N2          -2.8250    -0.8380    -5.6730 nb         1 9CQ      -0.750000
     15 C17         -3.6970    -0.8520    -6.6780 ca         1 9CQ       0.936900
     16 N3          -4.7700    -1.7210    -6.6100 nv         1 9CQ      -1.050500
     17 N1          -3.5790    -0.0720    -7.7360 nb         1 9CQ      -0.751000
     18 C16         -2.5540     0.7820    -7.8390 ca         1 9CQ       0.462600
     19 C11         -1.6020     0.8370    -6.7890 ca         1 9CQ      -0.290600
     20 C15         -2.3990     1.6260    -8.9490 ca         1 9CQ      -0.180300
     21 C14         -1.3370     2.4780    -9.0040 ca         1 9CQ      -0.102000
     22 C13         -0.4000     2.5260    -7.9740 ca         1 9CQ      -0.143000
     23 C12         -0.5260     1.7270    -6.8750 ca         1 9CQ      -0.096000
     24 H31C         2.5890    -0.8910    -1.3580 hc         1 9CQ       0.066200
     25 H32C         2.5890     0.8780    -1.3670 hc         1 9CQ       0.066200
     26 H11C         1.8590    -0.0030     3.2590 h1         1 9CQ       0.040533
     27 H12C         0.5340     0.8870     2.4950 h1         1 9CQ       0.040533
     28 H13C         0.5290    -0.8820     2.4930 h1         1 9CQ       0.040533
     29 HC1          3.7130     0.0050     2.1880 h1         1 9CQ       0.040533
     30 HC2          3.7130    -0.8880     0.6610 h1         1 9CQ       0.040533
     31 HC3          3.7130     0.8810     0.6510 h1         1 9CQ       0.040533
     32 H9           0.8940     2.1240    -2.5710 ha         1 9CQ       0.133500
     33 H5           0.8970    -2.1490    -2.5530 ha         1 9CQ       0.133500
     34 H8          -0.7070     2.1250    -4.4420 ha         1 9CQ       0.143500
     35 H6          -0.7070    -2.1680    -4.4220 ha         1 9CQ       0.143500
     36 H31N        -4.8110    -2.5140    -7.2190 hn         1 9CQ       0.444800
     37 H32N        -5.5150    -1.5460    -5.9650 hn         1 9CQ       0.444800
     38 H15         -3.1200     1.6000    -9.7570 ha         1 9CQ       0.151000
     39 H12          0.2100     1.7730    -6.0810 ha         1 9CQ       0.146000
     40 H14         -1.2150     3.1230    -9.8670 ha         1 9CQ       0.133000
     41 H13          0.4350     3.2120    -8.0430 ha         1 9CQ       0.131000
@<TRIPOS>BOND
     1     1     2 2
     2     2     3 1
     3     2     6 1
     4     3     4 1
     5     3     5 1
     6     6     7 1
     7     7     8 ar
     8     7    12 ar
     9     8     9 ar
    10     9    10 ar
    11    10    11 ar
    12    10    13 1
    13    11    12 ar
    14    13    14 ar
    15    13    19 ar
    16    14    15 ar
    17    15    16 1
    18    15    17 ar
    19    17    18 ar
    20    18    19 ar
    21    18    20 ar
    22    19    23 ar
    23    20    21 ar
    24    21    22 ar
    25    22    23 ar
    26     6    24 1
    27     6    25 1
    28     4    26 1
    29     4    27 1
    30     4    28 1
    31     5    29 1
    32     5    30 1
    33     5    31 1
    34     8    32 1
    35    12    33 1
    36     9    34 1
    37    11    35 1
    38    16    36 1
    39    16    37 1
    40    20    38 1
    41    23    39 1
    42    21    40 1
    43    22    41 1
@<TRIPOS>SUBSTRUCTURE
     1 9CQ         1 TEMP              0 ****  ****    0 ROOT
