@<TRIPOS>MOLECULE
9CR
   49    49     1     0     0
SMALL
bcc


@<TRIPOS>ATOM
      1 C1         -0.4670    0.5360    0.2410 c3        1 9CR      0.002200
      2 C2          0.8200    0.9200   -0.4950 c3        1 9CR     -0.069400
      3 C3          1.9020    1.4040    0.4430 c3        1 9CR     -0.072400
      4 C4          1.4350    2.6110    1.2250 c3        1 9CR     -0.045200
      5 C5          0.0460    2.4740    1.7420 c2        1 9CR     -0.098400
      6 C6         -0.8490    1.5910    1.2480 ce        1 9CR     -0.079200
      7 C7         -2.2010    1.5420    1.8010 ce        1 9CR     -0.126000
      8 C8         -3.3640    1.9630    1.2920 cf        1 9CR     -0.096000
      9 C9         -3.7020    2.5170   -0.0100 cf        1 9CR     -0.142200
     10 C10        -3.2470    3.6580   -0.5650 ce        1 9CR     -0.067000
     11 C11        -2.2890    4.5900   -0.0270 ce        1 9CR     -0.216000
     12 C12        -2.0530    5.7750   -0.6280 cf        1 9CR     -0.049000
     13 C13        -1.1180    6.7920   -0.1870 cf        1 9CR     -0.156200
     14 C14        -1.0530    7.9710   -0.8390 ce        1 9CR     -0.133200
     15 C15        -0.1830    9.1570   -0.4870 c         1 9CR      0.892800
     16 C16        -0.2660   -0.7850    0.9820 c3        1 9CR     -0.084600
     17 C17        -1.5580    0.3370   -0.8030 c3        1 9CR     -0.084600
     18 C18        -0.2800    3.4130    2.8450 c3        1 9CR     -0.069900
     19 C19        -4.7490    1.7240   -0.7180 c3        1 9CR     -0.046900
     20 C20        -0.2570    6.4810    0.9800 c3        1 9CR     -0.050900
     21 O1          1.0390    8.9810   -0.2200 o         1 9CR     -0.829800
     22 O2         -0.7450   10.2900   -0.5090 o         1 9CR     -0.829800
     23 H1          1.1890    0.0310   -1.0710 hc        1 9CR      0.041200
     24 H2          0.5840    1.7310   -1.2340 hc        1 9CR      0.041200
     25 H3          2.1910    0.5820    1.1490 hc        1 9CR      0.033200
     26 H4          2.8170    1.6720   -0.1470 hc        1 9CR      0.033200
     27 H5          1.4660    3.5250    0.5660 hc        1 9CR      0.055700
     28 H6          2.1390    2.7980    2.0800 hc        1 9CR      0.055700
     29 H7         -2.2170    1.1080    2.8220 ha        1 9CR      0.107000
     30 H8         -4.2650    1.8350    1.9280 ha        1 9CR      0.104000
     31 H9         -3.6630    3.9470   -1.5520 ha        1 9CR      0.104000
     32 H10        -1.7550    4.2910    0.8910 ha        1 9CR      0.137000
     33 H11        -2.6160    6.0310   -1.5470 ha        1 9CR      0.100000
     34 H12        -1.7100    8.1590   -1.7060 ha        1 9CR      0.097000
     35 H13         0.5600   -0.6990    1.7260 hc        1 9CR      0.033033
     36 H14        -1.2020   -1.0650    1.5220 hc        1 9CR      0.033033
     37 H15        -0.0130   -1.5950    0.2570 hc        1 9CR      0.033033
     38 H16        -1.2010   -0.3580   -1.6000 hc        1 9CR      0.033033
     39 H17        -2.4700   -0.0990   -0.3280 hc        1 9CR      0.033033
     40 H18        -1.8360    1.3140   -1.2670 hc        1 9CR      0.033033
     41 H19         0.1100    4.4370    2.6130 hc        1 9CR      0.046367
     42 H20        -1.3800    3.4910    3.0210 hc        1 9CR      0.046367
     43 H21         0.2050    3.0590    3.7900 hc        1 9CR      0.046367
     44 H22        -5.0250    2.1880   -1.6960 hc        1 9CR      0.029367
     45 H23        -5.6710    1.6550   -0.0890 hc        1 9CR      0.029367
     46 H24        -4.3820    0.6860   -0.9150 hc        1 9CR      0.029367
     47 H25         0.3360    5.5520    0.7800 hc        1 9CR      0.038367
     48 H26         0.4580    7.3220    1.1750 hc        1 9CR      0.038367
     49 H27        -0.8820    6.3110    1.8920 hc        1 9CR      0.038367
@<TRIPOS>BOND
     1    1    2 1   
     2    1    6 1   
     3    1   16 1   
     4    1   17 1   
     5    2    3 1   
     6    2   23 1   
     7    2   24 1   
     8    3    4 1   
     9    3   25 1   
    10    3   26 1   
    11    4    5 1   
    12    4   27 1   
    13    4   28 1   
    14    5    6 2   
    15    5   18 1   
    16    6    7 1   
    17    7    8 2   
    18    7   29 1   
    19    8    9 1   
    20    8   30 1   
    21    9   10 2   
    22    9   19 1   
    23   10   11 1   
    24   10   31 1   
    25   11   12 2   
    26   11   32 1   
    27   12   13 1   
    28   12   33 1   
    29   13   14 2   
    30   13   20 1   
    31   14   15 1   
    32   14   34 1   
    33   15   21 1   
    34   15   22 1   
    35   16   35 1   
    36   16   36 1   
    37   16   37 1   
    38   17   38 1   
    39   17   39 1   
    40   17   40 1   
    41   18   41 1   
    42   18   42 1   
    43   18   43 1   
    44   19   44 1   
    45   19   45 1   
    46   19   46 1   
    47   20   47 1   
    48   20   48 1   
    49   20   49 1   
@<TRIPOS>SUBSTRUCTURE
     1 9CR         1 TEMP              0 ****  ****    0 ROOT
