@<TRIPOS>MOLECULE
molecule
   49    49     1     0     0
SMALL
bcc


@<TRIPOS>ATOM
      1 C1           0.0000     0.0000     0.0000 c3         1 9CR      -0.014800
      2 C2           1.5300     0.0000     0.0000 c3         1 9CR      -0.068400
      3 C3           2.0180     0.0000     1.4530 c3         1 9CR      -0.081400
      4 C4           1.6610     1.3480     2.0850 c3         1 9CR      -0.032200
      5 C5           0.2170     1.6700     1.8350 c2         1 9CR      -0.128400
      6 C6          -0.5170     1.0770     0.9080 ce         1 9CR      -0.076200
      7 C7          -1.8680     1.4820     0.7660 ce         1 9CR      -0.158000
      8 C8          -2.1640     2.7760     0.4840 cf         1 9CR      -0.149000
      9 C9          -3.5000     3.1630     0.2670 cf         1 9CR      -0.082200
     10 C10         -3.7950     4.4640    -0.0170 ce         1 9CR      -0.435000
     11 C11         -2.7690     5.4160    -0.0940 ce         1 9CR      -0.253000
     12 C12         -3.0660     6.7180    -0.3780 cf         1 9CR       0.030000
     13 C13         -2.0390     7.6720    -0.4550 cf         1 9CR      -0.184200
     14 C14         -2.3360     8.9720    -0.7380 ce         1 9CR      -0.066200
     15 C15         -1.2980     9.8980    -0.9660 c          1 9CR       0.844800
     16 C16         -0.5080    -1.3580     0.4880 c3         1 9CR      -0.078100
     17 C17         -0.5080     0.2490    -1.4220 c3         1 9CR      -0.078100
     18 C18         -0.4320     2.7320     2.6860 c3         1 9CR      -0.053900
     19 C19         -4.6020     2.1390     0.3500 c3         1 9CR      -0.032900
     20 C20         -0.6090     7.2580    -0.2230 c3         1 9CR      -0.026900
     21 O1          -0.1430     9.5160    -1.0200 o          1 9CR      -0.824300
     22 O2          -1.5840    11.2080    -1.1240 o          1 9CR      -0.824300
     23 H1           1.8930     0.8870    -0.5050 hc         1 9CR       0.042200
     24 H2           1.8930    -0.8870    -0.5050 hc         1 9CR       0.042200
     25 H3           3.0920    -0.1390     1.4760 hc         1 9CR       0.037700
     26 H4           1.5300    -0.7980     2.0000 hc         1 9CR       0.037700
     27 H5           2.2810     2.1220     1.6500 hc         1 9CR       0.046200
     28 H6           1.8370     1.2990     3.1530 hc         1 9CR       0.046200
     29 H7          -2.6620     0.7460     0.8250 ha         1 9CR       0.127000
     30 H8          -1.3670     3.5000     0.3670 ha         1 9CR       0.135000
     31 H9          -3.3130     4.9140     0.8430 ha         1 9CR       0.338000
     32 H10         -1.7410     5.1190     0.0720 ha         1 9CR       0.109000
     33 H11         -4.0950     7.0150    -0.5440 ha         1 9CR       0.139000
     34 H12         -3.3650     9.2660    -0.9030 ha         1 9CR       0.113000
     35 H13          0.2050    -2.1280     0.2190 hc         1 9CR       0.034533
     36 H14         -1.4640    -1.5740     0.0260 hc         1 9CR       0.034533
     37 H15         -0.6250    -1.3350     1.5650 hc         1 9CR       0.034533
     38 H16         -0.0280    -0.4430    -2.1040 hc         1 9CR       0.034533
     39 H17         -1.5810     0.1020    -1.4540 hc         1 9CR       0.034533
     40 H18         -0.2750     1.2660    -1.7160 hc         1 9CR       0.034533
     41 H19         -1.4720     2.4750     2.8520 hc         1 9CR       0.041367
     42 H20         -0.3730     3.6870     2.1790 hc         1 9CR       0.041367
     43 H21          0.0810     2.7950     3.6380 hc         1 9CR       0.041367
     44 H22         -4.4480     1.3810    -0.4090 hc         1 9CR       0.034367
     45 H23         -4.5920     1.6770     1.3300 hc         1 9CR       0.034367
     46 H24         -5.5570     2.6230     0.1880 hc         1 9CR       0.034367
     47 H25         -0.1080     7.1390    -1.1760 hc         1 9CR       0.042367
     48 H26         -0.1020     8.0190     0.3580 hc         1 9CR       0.042367
     49 H27         -0.5880     6.3180     0.3160 hc         1 9CR       0.042367
@<TRIPOS>BOND
     1    21    15 1
     2    15    14 1
     3    15    22 1
     4    14    13 2
     5    13    12 1
     6    13    20 1
     7    12    11 2
     8    11    10 1
     9    18     5 1
    10    10     9 2
    11     9    19 1
    12     9     8 1
    13     8     7 2
    14     5     4 1
    15     5     6 2
    16     4     3 1
    17     7     6 1
    18     6     1 1
    19     3     2 1
    20     1    17 1
    21     1     2 1
    22     1    16 1
    23     2    23 1
    24     2    24 1
    25     3    25 1
    26     3    26 1
    27     4    27 1
    28     4    28 1
    29     7    29 1
    30     8    30 1
    31    10    31 1
    32    11    32 1
    33    12    33 1
    34    14    34 1
    35    16    35 1
    36    16    36 1
    37    16    37 1
    38    17    38 1
    39    17    39 1
    40    17    40 1
    41    18    41 1
    42    18    42 1
    43    18    43 1
    44    19    44 1
    45    19    45 1
    46    19    46 1
    47    20    47 1
    48    20    48 1
    49    20    49 1
@<TRIPOS>SUBSTRUCTURE
     1 9CR         1 TEMP              0 ****  ****    0 ROOT
