@<TRIPOS>MOLECULE
9CT
   57    59     1     0     0
SMALL
bcc


@<TRIPOS>ATOM
      1 C1           0.0000     0.0000     0.0000 c3         1 9CT       0.020900
      2 C2           1.5300     0.0000     0.0000 c3         1 9CT      -0.097400
      3 C3           2.0320     0.0000     1.4210 c          1 9CT       0.564100
      4 C11          3.0410     0.7340     3.9420 ca         1 9CT      -0.142000
      5 C12          5.9230    -1.0520     2.3060 c          1 9CT       0.611700
      6 C15          7.8830    -2.2510     1.7030 cc         1 9CT      -0.261700
      7 C18          8.6560    -3.0510    -0.2280 cd         1 9CT       0.374600
      8 C19          8.7610    -3.3920    -1.6930 c3         1 9CT      -0.030700
      9 C20         10.0860    -2.8610    -2.2460 c3         1 9CT       0.024900
     10 C21         10.1910    -3.2010    -3.7100 ca         1 9CT      -0.012300
     11 C22          9.7090    -2.3210    -4.6590 ca         1 9CT      -0.182000
     12 C23          9.8040    -2.6320    -6.0080 ca         1 9CT       0.193100
     13 C25          9.4600    -2.1520    -8.3100 c3         1 9CT       0.244700
     14 C26         10.3860    -3.8270    -6.4030 ca         1 9CT      -0.327000
     15 C27         10.8700    -4.7090    -5.4490 ca         1 9CT       0.193100
     16 C29         11.5060    -6.1410    -7.2370 c3         1 9CT       0.244700
     17 C30         10.7760    -4.3910    -4.1010 ca         1 9CT      -0.182000
     18 O4           1.2440    -0.0010     2.3430 o          1 9CT      -0.640100
     19 N5           3.3580     0.0010     1.6680 ns         1 9CT      -0.053100
     20 C6           3.8230     0.1150     2.9760 ca         1 9CT       0.005600
     21 C7           5.0830    -0.3920     3.3230 ca         1 9CT      -0.223600
     22 C8           5.5390    -0.2700     4.6380 ca         1 9CT      -0.060000
     23 C9           4.7480     0.3480     5.5840 ca         1 9CT      -0.136000
     24 C10          3.5030     0.8480     5.2380 ca         1 9CT      -0.042000
     25 O13          5.5650    -1.0780     1.1450 o          1 9CT      -0.657100
     26 N14          7.0890    -1.6270     2.6640 ns         1 9CT       0.013900
     27 N16          9.0730    -2.8660     1.9220 na         1 9CT       0.411400
     28 N17          9.5330    -3.3580     0.6930 nc         1 9CT      -0.653800
     29 O24          9.3280    -1.7670    -6.9410 os         1 9CT      -0.306900
     30 O28         11.4400    -5.8820    -5.8330 os         1 9CT      -0.306900
     31 C31          7.6040    -2.3590     0.3760 cd         1 9CT      -0.332300
     32 H1          -0.3610    -0.0630    -1.0190 hc         1 9CT       0.009033
     33 H2          -0.3610     0.9140     0.4550 hc         1 9CT       0.009033
     34 H3          -0.3610    -0.8510     0.5640 hc         1 9CT       0.009033
     35 H4           1.8910    -0.8850    -0.5110 hc         1 9CT       0.029700
     36 H5           1.8910     0.8850    -0.5110 hc         1 9CT       0.029700
     37 H6           2.0670     1.1280     3.6790 ha         1 9CT       0.162000
     38 H7           8.7230    -4.4670    -1.8180 hc         1 9CT       0.025700
     39 H8           7.9380    -2.9360    -2.2300 hc         1 9CT       0.025700
     40 H9          10.9100    -3.3160    -1.7100 hc         1 9CT       0.028200
     41 H10         10.1250    -1.7860    -2.1220 hc         1 9CT       0.028200
     42 H11          9.2540    -1.3870    -4.3510 ha         1 9CT       0.123000
     43 H12          8.9270    -3.0810    -8.4770 h1         1 9CT      -0.003633
     44 H13         10.5080    -2.2890    -8.5480 h1         1 9CT      -0.003633
     45 H14          9.0440    -1.3790    -8.9450 h1         1 9CT      -0.003633
     46 H15         10.4590    -4.0730    -7.4560 ha         1 9CT       0.137000
     47 H16         10.5050    -6.1550    -7.6490 h1         1 9CT      -0.003633
     48 H17         11.9790    -7.1010    -7.4040 h1         1 9CT      -0.003633
     49 H18         12.0850    -5.3640    -7.7210 h1         1 9CT      -0.003633
     50 H19         11.1540    -5.0790    -3.3550 ha         1 9CT       0.123000
     51 H20          4.0080    -0.0330     0.9080 hn         1 9CT       0.225500
     52 H21          6.5110    -0.6600     4.9140 ha         1 9CT       0.094000
     53 H22          5.1020     0.4420     6.6040 ha         1 9CT       0.106000
     54 H23          2.8890     1.3320     5.9880 ha         1 9CT       0.105000
     55 H24          7.3860    -1.6030     3.6200 hn         1 9CT       0.167500
     56 H25          9.5390    -2.9540     2.8040 hn         1 9CT       0.145700
     57 H26          6.6940    -2.0310    -0.1130 ha         1 9CT       0.186000
@<TRIPOS>BOND
     1     1     2 1   
     2     1    32 1   
     3     1    33 1   
     4     1    34 1   
     5     2     3 1   
     6     2    35 1   
     7     2    36 1   
     8     3    18 2   
     9     3    19 1   
    10     4    20 ar  
    11     4    24 ar  
    12     4    37 1   
    13     5    21 1   
    14     5    25 2   
    15     5    26 1   
    16     6    26 1   
    17     6    27 1   
    18     6    31 2   
    19     7     8 1   
    20     7    28 2   
    21     7    31 1   
    22     8     9 1   
    23     8    38 1   
    24     8    39 1   
    25     9    10 1   
    26     9    40 1   
    27     9    41 1   
    28    10    11 ar  
    29    10    17 ar  
    30    11    12 ar  
    31    11    42 1   
    32    12    14 ar  
    33    12    29 1   
    34    13    29 1   
    35    13    43 1   
    36    13    44 1   
    37    13    45 1   
    38    14    15 ar  
    39    14    46 1   
    40    15    17 ar  
    41    15    30 1   
    42    16    30 1   
    43    16    47 1   
    44    16    48 1   
    45    16    49 1   
    46    17    50 1   
    47    19    20 1   
    48    19    51 1   
    49    20    21 ar  
    50    21    22 ar  
    51    22    23 ar  
    52    22    52 1   
    53    23    24 ar  
    54    23    53 1   
    55    24    54 1   
    56    26    55 1   
    57    27    28 1   
    58    27    56 1   
    59    31    57 1   
@<TRIPOS>SUBSTRUCTURE
     1 9CT         1 TEMP              0 ****  ****    0 ROOT
