@<TRIPOS>MOLECULE
molecule
   41    43     1     0     0
SMALL
bcc


@<TRIPOS>ATOM
      1 C16          0.0000     0.0000     0.0000 c3         1 9CU      -0.086100
      2 C7           2.0350     1.8700     4.2610 c3         1 9CU       0.158100
      3 C6           2.0460     1.7430     5.7850 c3         1 9CU      -0.072100
      4 C9           1.0620     4.0650     5.7000 ca         1 9CU      -0.218600
      5 C2          -0.1310     4.9800     7.5800 ca         1 9CU      -0.251000
      6 C14          3.8490     0.0000     0.0000 c3         1 9CU      -0.080400
      7 C15          3.9940     0.0000     1.5260 c3         1 9CU      -0.112400
      8 C8           1.5830     4.1930     4.3250 c          1 9CU       0.751200
      9 C5           1.2780     2.8790     6.4090 ca         1 9CU      -0.004300
     10 C4           0.7870     2.7530     7.6890 ca         1 9CU      -0.193000
     11 C12          1.4200     0.4780     0.3130 c3         1 9CU       0.147100
     12 C3           0.0830     3.7990     8.2770 ca         1 9CU       0.169100
     13 C10          3.0220     0.8680     3.6580 c3         1 9CU      -0.066400
     14 C1           0.3560     5.1210     6.2920 ca         1 9CU       0.205100
     15 C13          2.4320    -0.4490    -0.3670 c3         1 9CU      -0.113400
     16 O5           1.6290     0.4550     1.7260 os         1 9CU      -0.430600
     17 C11          2.9220     0.9090     2.1320 c3         1 9CU       0.145100
     18 O3           2.4260     3.2230     3.8880 os         1 9CU      -0.428900
     19 O4           1.2690     5.1280     3.6140 o          1 9CU      -0.543500
     20 O2          -0.3970     3.6640     9.5390 oh         1 9CU      -0.521100
     21 O1           0.1520     6.2740     5.6070 oh         1 9CU      -0.472100
     22 H1          -0.1510    -0.9850     0.4240 hc         1 9CU       0.043700
     23 H2          -0.7160     0.6910     0.4280 hc         1 9CU       0.043700
     24 H3          -0.1380    -0.0440    -1.0740 hc         1 9CU       0.043700
     25 H4           1.0370     1.6690     3.8910 h1         1 9CU       0.074700
     26 H5           3.0720     1.7880     6.1290 hc         1 9CU       0.071700
     27 H6           1.5670     0.8100     6.0580 hc         1 9CU       0.071700
     28 H7          -0.6800     5.7910     8.0440 ha         1 9CU       0.150000
     29 H8           4.0210     1.0000    -0.3790 hc         1 9CU       0.044700
     30 H9           4.5680    -0.6860    -0.4310 hc         1 9CU       0.044700
     31 H10          3.8660    -1.0080     1.9000 hc         1 9CU       0.049200
     32 H11          4.9760     0.3710     1.7950 hc         1 9CU       0.049200
     33 H12          0.9490     1.8340     8.2410 ha         1 9CU       0.147000
     34 H13          1.5550     1.4880    -0.0540 h1         1 9CU       0.040700
     35 H14          4.0290     1.1270     3.9610 hc         1 9CU       0.064200
     36 H15          2.7840    -0.1290     4.0090 hc         1 9CU       0.064200
     37 H16          2.2760    -1.4650    -0.0270 hc         1 9CU       0.050200
     38 H17          2.3040    -0.3970    -1.4410 hc         1 9CU       0.050200
     39 H18          3.0720     1.9230     1.7830 h1         1 9CU       0.058700
     40 H19         -1.2850     3.3490     9.5060 ho         1 9CU       0.428000
     41 H20          0.2860     7.0090     6.1810 ho         1 9CU       0.425000
@<TRIPOS>BOND
     1    21    14 1
     2    19     8 2
     3    14     5 ar
     4    14     4 ar
     5     5    12 ar
     6     8     4 1
     7     8    18 1
     8     4     9 ar
     9    12    20 1
    10    12    10 ar
    11    18     2 1
    12     9    10 ar
    13     9     3 1
    14     3     2 1
    15     2    13 1
    16    13    17 1
    17    17     7 1
    18    17    16 1
    19     7     6 1
    20    16    11 1
    21     6    15 1
    22    11    15 1
    23    11     1 1
    24     1    22 1
    25     1    23 1
    26     1    24 1
    27     2    25 1
    28     3    26 1
    29     3    27 1
    30     5    28 1
    31     6    29 1
    32     6    30 1
    33     7    31 1
    34     7    32 1
    35    10    33 1
    36    11    34 1
    37    13    35 1
    38    13    36 1
    39    15    37 1
    40    15    38 1
    41    17    39 1
    42    20    40 1
    43    21    41 1
@<TRIPOS>SUBSTRUCTURE
     1 9CU         1 TEMP              0 ****  ****    0 ROOT
