@<TRIPOS>MOLECULE
molecule
   70    74     1     0     0
SMALL
bcc


@<TRIPOS>ATOM
      1 F            0.0000     0.0000     0.0000 f          1 9CV      -0.132900
      2 C21          1.3520     0.0000     0.0000 ca         1 9CV       0.134900
      3 C20          2.0270     0.0000     1.1960 ca         1 9CV      -0.144000
      4 C19          3.4100     0.0380     1.1810 ca         1 9CV      -0.103000
      5 C22          2.0110     0.0790    -1.2130 ca         1 9CV       0.084100
      6 O1           1.2480     0.0270    -2.3830 os         1 9CV      -0.264200
      7 C24          1.5400     0.7450    -3.5500 ca         1 9CV       0.130100
      8 C29          2.1010     2.0190    -3.5230 ca         1 9CV      -0.158000
      9 C28          2.3150     2.6910    -4.7170 ca         1 9CV      -0.105000
     10 C27          1.9890     2.0960    -5.9230 ca         1 9CV      -0.150000
     11 C26          1.4110     0.8400    -5.9400 ca         1 9CV      -0.105000
     12 C25          1.1850     0.1530    -4.7560 ca         1 9CV      -0.158000
     13 C23          3.4000     0.0840    -1.2120 ca         1 9CV      -0.131000
     14 C18          4.1150     0.1120    -0.0150 ca         1 9CV      -0.118300
     15 C17          5.6230     0.0700    -0.0250 c3         1 9CV       0.296100
     16 N5           6.1330    -1.0330    -0.8290 nu         1 9CV      -0.826600
     17 C4           6.0190    -2.3750    -0.4720 ca         1 9CV       0.018300
     18 C3           5.5970    -2.7580     0.8070 ca         1 9CV      -0.078000
     19 C5           6.3970    -3.3630    -1.4070 ca         1 9CV       0.657200
     20 N1           6.4220    -4.6650    -1.0120 nb         1 9CV      -0.736000
     21 C6           5.9430    -5.0210     0.1890 ca         1 9CV       0.427200
     22 C2           5.5670    -4.1020     1.1550 ca         1 9CV      -0.285900
     23 C1           4.9770    -4.5040     2.4710 c          1 9CV       0.683700
     24 O            4.2240    -3.7390     3.0770 o          1 9CV      -0.619100
     25 N            5.2600    -5.7290     2.9170 ns         1 9CV      -0.571900
     26 C            4.6790    -6.2570     4.1390 c3         1 9CV       0.099300
     27 N2           6.9180    -3.0770    -2.6280 nu         1 9CV      -0.904900
     28 C7           7.1130    -4.0130    -3.7380 c3         1 9CV       0.265500
     29 C11          5.7620    -4.6590    -4.0740 c3         1 9CV      -0.131400
     30 C10          5.8470    -5.4810    -5.3690 c3         1 9CV       0.219300
     31 N3           6.3390    -4.6660    -6.4860 nh         1 9CV      -0.793300
     32 C9           7.6830    -4.1680    -6.1800 c3         1 9CV       0.219300
     33 C8           7.6650    -3.2620    -4.9440 c3         1 9CV      -0.131400
     34 C12          5.5130    -3.9650    -7.3570 ca         1 9CV       0.676200
     35 N4           6.1170    -3.3650    -8.4000 nb         1 9CV      -0.724000
     36 C16          5.3510    -2.6510    -9.2430 ca         1 9CV       0.439200
     37 C15          3.9850    -2.5140    -9.1050 ca         1 9CV      -0.298300
     38 C14          3.3800    -3.1060    -8.0180 ca         1 9CV      -0.059000
     39 C13          4.1320    -3.8580    -7.1270 ca         1 9CV      -0.303300
     40 H1           1.4870    -0.0580     2.1340 ha         1 9CV       0.160000
     41 H2           3.9510     0.0480     2.1200 ha         1 9CV       0.141000
     42 H3           2.3560     2.4860    -2.5790 ha         1 9CV       0.146000
     43 H4           2.7590     3.6790    -4.7070 ha         1 9CV       0.133500
     44 H5           2.1600     2.6260    -6.8530 ha         1 9CV       0.133000
     45 H6           1.1470     0.3820    -6.8860 ha         1 9CV       0.133500
     46 H7           0.7320    -0.8300    -4.7710 ha         1 9CV       0.146000
     47 H8           3.9340     0.1430    -2.1530 ha         1 9CV       0.142000
     48 H9           5.9980     1.0030    -0.4300 h1         1 9CV       0.053700
     49 H10          5.9790    -0.0410     0.9920 h1         1 9CV       0.053700
     50 H11          6.5930    -0.8140    -1.6900 hn         1 9CV       0.424800
     51 H12          5.3110    -2.0040     1.5310 ha         1 9CV       0.158000
     52 H13          5.9510    -6.0710     0.4570 h4         1 9CV       0.008100
     53 H14          5.8920    -6.3020     2.3930 hn         1 9CV       0.314500
     54 H15          4.9660    -5.6300     4.9750 h1         1 9CV       0.042367
     55 H16          5.0380    -7.2660     4.3040 h1         1 9CV       0.042367
     56 H17          3.5990    -6.2680     4.0510 h1         1 9CV       0.042367
     57 H18          7.1980    -2.1290    -2.7850 hn         1 9CV       0.422800
     58 H19          7.8160    -4.7840    -3.4450 h1         1 9CV       0.063700
     59 H20          5.4690    -5.3110    -3.2600 hc         1 9CV       0.058950
     60 H21          5.0180    -3.8810    -4.1980 hc         1 9CV       0.058950
     61 H22          4.8610    -5.8570    -5.6140 h1         1 9CV       0.062700
     62 H23          6.5220    -6.3140    -5.2150 h1         1 9CV       0.062700
     63 H24          8.3390    -5.0090    -5.9920 h1         1 9CV       0.062700
     64 H25          8.0530    -3.6030    -7.0270 h1         1 9CV       0.062700
     65 H26          8.6740    -2.9340    -4.7280 hc         1 9CV       0.058950
     66 H27          7.0390    -2.4010    -5.1430 hc         1 9CV       0.058950
     67 H28          5.8300    -2.1750   -10.0910 h4         1 9CV       0.016100
     68 H29          3.4110    -1.9250    -9.8100 ha         1 9CV       0.140000
     69 H30          2.3110    -3.0090    -7.8760 ha         1 9CV       0.131000
     70 H31          3.6710    -4.3290    -6.2680 ha         1 9CV       0.144000
@<TRIPOS>BOND
     1    15    16 1
     2    15    14 1
     3    16    17 1
     4     9     8 ar
     5     9    10 ar
     6    14     4 ar
     7    14    13 ar
     8     8     7 ar
     9    33    32 1
    10    33    28 1
    11     4     3 ar
    12    17    18 ar
    13    17    19 ar
    14    27    19 1
    15    27    28 1
    16    10    11 ar
    17    13     5 ar
    18    18    22 ar
    19    19    20 ar
    20    32    31 1
    21    28    29 1
    22     3     2 ar
    23     5     2 ar
    24     5     6 1
    25     7     6 1
    26     7    12 ar
    27    35    36 ar
    28    35    34 ar
    29    22    21 ar
    30    22    23 1
    31    11    12 ar
    32    20    21 ar
    33     2     1 1
    34    36    37 ar
    35    24    23 2
    36    23    25 1
    37    31    34 1
    38    31    30 1
    39    34    39 ar
    40    29    30 1
    41    37    38 ar
    42    25    26 1
    43    39    38 ar
    44     3    40 1
    45     4    41 1
    46     8    42 1
    47     9    43 1
    48    10    44 1
    49    11    45 1
    50    12    46 1
    51    13    47 1
    52    15    48 1
    53    15    49 1
    54    16    50 1
    55    18    51 1
    56    21    52 1
    57    25    53 1
    58    26    54 1
    59    26    55 1
    60    26    56 1
    61    27    57 1
    62    28    58 1
    63    29    59 1
    64    29    60 1
    65    30    61 1
    66    30    62 1
    67    32    63 1
    68    32    64 1
    69    33    65 1
    70    33    66 1
    71    36    67 1
    72    37    68 1
    73    38    69 1
    74    39    70 1
@<TRIPOS>SUBSTRUCTURE
     1 9CV         1 TEMP              0 ****  ****    0 ROOT
