@<TRIPOS>MOLECULE
9CV
   70    74     1     0     0
SMALL
bcc


@<TRIPOS>ATOM
      1 F            0.0000     0.0000     0.0000 f          1 9CV      -0.123900
      2 C21          1.3520     0.0000     0.0000 ca         1 9CV       0.096900
      3 C20          2.0270     0.0000     1.1960 ca         1 9CV      -0.104000
      4 C19          3.4100     0.0380     1.1810 ca         1 9CV      -0.074000
      5 C22          2.0110     0.0790    -1.2130 ca         1 9CV       0.098100
      6 O1           1.2480     0.0270    -2.3830 os         1 9CV      -0.228200
      7 C24          1.5400     0.7450    -3.5500 ca         1 9CV       0.131100
      8 C29          2.1010     2.0190    -3.5230 ca         1 9CV      -0.141000
      9 C28          2.3150     2.6910    -4.7170 ca         1 9CV      -0.073500
     10 C27          1.9890     2.0960    -5.9230 ca         1 9CV      -0.126000
     11 C26          1.4110     0.8400    -5.9400 ca         1 9CV      -0.073500
     12 C25          1.1850     0.1530    -4.7560 ca         1 9CV      -0.141000
     13 C23          3.4000     0.0840    -1.2120 ca         1 9CV      -0.120000
     14 C18          4.1150     0.1120    -0.0150 ca         1 9CV      -0.117300
     15 C17          5.6230     0.0700    -0.0250 c3         1 9CV       0.239100
     16 N5           6.1330    -1.0330    -0.8290 nu         1 9CV      -0.425600
     17 C4           6.0190    -2.3750    -0.4720 ca         1 9CV      -0.122700
     18 C3           5.5970    -2.7580     0.8070 ca         1 9CV      -0.049000
     19 C5           6.3970    -3.3630    -1.4070 ca         1 9CV       0.483200
     20 N1           6.4220    -4.6650    -1.0120 nb         1 9CV      -0.659000
     21 C6           5.9430    -5.0210     0.1890 ca         1 9CV       0.427200
     22 C2           5.5670    -4.1020     1.1550 ca         1 9CV      -0.298900
     23 C1           4.9770    -4.5040     2.4710 c          1 9CV       0.606700
     24 O            4.2240    -3.7390     3.0770 o          1 9CV      -0.663100
     25 N            5.2600    -5.7290     2.9170 ns         1 9CV      -0.174900
     26 C            4.6790    -6.2570     4.1390 c3         1 9CV       0.080300
     27 N2           6.9180    -3.0770    -2.6280 nu         1 9CV      -0.490900
     28 C7           7.1130    -4.0130    -3.7380 c3         1 9CV       0.159500
     29 C11          5.7620    -4.6590    -4.0740 c3         1 9CV      -0.074900
     30 C10          5.8470    -5.4810    -5.3690 c3         1 9CV       0.163800
     31 N3           6.3390    -4.6660    -6.4860 nh         1 9CV      -0.468300
     32 C9           7.6830    -4.1680    -6.1800 c3         1 9CV       0.163800
     33 C8           7.6650    -3.2620    -4.9440 c3         1 9CV      -0.074900
     34 C12          5.5130    -3.9650    -7.3570 ca         1 9CV       0.529200
     35 N4           6.1170    -3.3650    -8.4000 nb         1 9CV      -0.643000
     36 C16          5.3510    -2.6510    -9.2430 ca         1 9CV       0.442200
     37 C15          3.9850    -2.5140    -9.1050 ca         1 9CV      -0.272300
     38 C14          3.3800    -3.1060    -8.0180 ca         1 9CV      -0.025000
     39 C13          4.1320    -3.8580    -7.1270 ca         1 9CV      -0.287300
     40 H1           1.4870    -0.0580     2.1340 ha         1 9CV       0.129000
     41 H2           3.9510     0.0480     2.1200 ha         1 9CV       0.114000
     42 H3           2.3560     2.4860    -2.5790 ha         1 9CV       0.119500
     43 H4           2.7590     3.6790    -4.7070 ha         1 9CV       0.103000
     44 H5           2.1600     2.6260    -6.8530 ha         1 9CV       0.106000
     45 H6           1.1470     0.3820    -6.8860 ha         1 9CV       0.103000
     46 H7           0.7320    -0.8300    -4.7710 ha         1 9CV       0.119500
     47 H8           3.9340     0.1430    -2.1530 ha         1 9CV       0.116000
     48 H9           5.9980     1.0030    -0.4300 h1         1 9CV       0.023200
     49 H10          5.9790    -0.0410     0.9920 h1         1 9CV       0.023200
     50 H11          6.5930    -0.8140    -1.6900 hn         1 9CV       0.278800
     51 H12          5.3110    -2.0040     1.5310 ha         1 9CV       0.134000
     52 H13          5.9510    -6.0710     0.4570 h4         1 9CV      -0.032900
     53 H14          5.8920    -6.3020     2.3930 hn         1 9CV       0.173500
     54 H15          4.9660    -5.6300     4.9750 h1         1 9CV       0.009700
     55 H16          5.0380    -7.2660     4.3040 h1         1 9CV       0.009700
     56 H17          3.5990    -6.2680     4.0510 h1         1 9CV       0.009700
     57 H18          7.1980    -2.1290    -2.7850 hn         1 9CV       0.274800
     58 H19          7.8160    -4.7840    -3.4450 h1         1 9CV       0.041700
     59 H20          5.4690    -5.3110    -3.2600 hc         1 9CV       0.030950
     60 H21          5.0180    -3.8810    -4.1980 hc         1 9CV       0.030950
     61 H22          4.8610    -5.8570    -5.6140 h1         1 9CV       0.033450
     62 H23          6.5220    -6.3140    -5.2150 h1         1 9CV       0.033450
     63 H24          8.3390    -5.0090    -5.9920 h1         1 9CV       0.033450
     64 H25          8.0530    -3.6030    -7.0270 h1         1 9CV       0.033450
     65 H26          8.6740    -2.9340    -4.7280 hc         1 9CV       0.030950
     66 H27          7.0390    -2.4010    -5.1430 hc         1 9CV       0.030950
     67 H28          5.8300    -2.1750   -10.0910 h4         1 9CV      -0.028900
     68 H29          3.4110    -1.9250    -9.8100 ha         1 9CV       0.118000
     69 H30          2.3110    -3.0090    -7.8760 ha         1 9CV       0.100000
     70 H31          3.6710    -4.3290    -6.2680 ha         1 9CV       0.128000
@<TRIPOS>BOND
     1     1     2 1   
     2     2     3 ar  
     3     2     5 ar  
     4     3     4 ar  
     5     3    40 1   
     6     4    14 ar  
     7     4    41 1   
     8     5     6 1   
     9     5    13 ar  
    10     6     7 1   
    11     7     8 ar  
    12     7    12 ar  
    13     8     9 ar  
    14     8    42 1   
    15     9    10 ar  
    16     9    43 1   
    17    10    11 ar  
    18    10    44 1   
    19    11    12 ar  
    20    11    45 1   
    21    12    46 1   
    22    13    14 ar  
    23    13    47 1   
    24    14    15 1   
    25    15    16 1   
    26    15    48 1   
    27    15    49 1   
    28    16    17 1   
    29    16    50 1   
    30    17    18 ar  
    31    17    19 ar  
    32    18    22 ar  
    33    18    51 1   
    34    19    20 ar  
    35    19    27 1   
    36    20    21 ar  
    37    21    22 ar  
    38    21    52 1   
    39    22    23 1   
    40    23    24 2   
    41    23    25 1   
    42    25    26 1   
    43    25    53 1   
    44    26    54 1   
    45    26    55 1   
    46    26    56 1   
    47    27    28 1   
    48    27    57 1   
    49    28    29 1   
    50    28    33 1   
    51    28    58 1   
    52    29    30 1   
    53    29    59 1   
    54    29    60 1   
    55    30    31 1   
    56    30    61 1   
    57    30    62 1   
    58    31    32 1   
    59    31    34 1   
    60    32    33 1   
    61    32    63 1   
    62    32    64 1   
    63    33    65 1   
    64    33    66 1   
    65    34    35 ar  
    66    34    39 ar  
    67    35    36 ar  
    68    36    37 ar  
    69    36    67 1   
    70    37    38 ar  
    71    37    68 1   
    72    38    39 ar  
    73    38    69 1   
    74    39    70 1   
@<TRIPOS>SUBSTRUCTURE
     1 9CV         1 TEMP              0 ****  ****    0 ROOT
