@<TRIPOS>MOLECULE
molecule
   41    43     1     0     0
SMALL
bcc


@<TRIPOS>ATOM
      1 C8           0.0000     0.0000     0.0000 c          1 9CX       0.744200
      2 C5           0.0810    -1.5020     1.9760 ca         1 9CX      -0.012300
      3 C6           1.5690    -1.2850     2.0590 c3         1 9CX      -0.073100
      4 C2          -2.6700    -1.9190     1.8270 ca         1 9CX      -0.233000
      5 C4          -0.5390    -2.3140     2.8840 ca         1 9CX      -0.188000
      6 C15          5.4100     1.5330     0.5670 c3         1 9CX      -0.112400
      7 C14          5.8030     2.8500    -0.1100 c3         1 9CX      -0.081400
      8 C13          5.2060     2.8850    -1.5200 c3         1 9CX      -0.113400
      9 C12          3.6870     2.7100    -1.4270 c3         1 9CX       0.145100
     10 C16          3.0870     3.8760    -0.6390 c3         1 9CX      -0.130100
     11 O5           3.3910     1.4810    -0.7600 os         1 9CX      -0.392600
     12 C11          3.8840     1.4110     0.5790 c3         1 9CX       0.144100
     13 C7           1.9630     0.0000     1.3260 c3         1 9CX       0.163100
     14 O3           1.3580     0.0000     0.0000 os         1 9CX      -0.396900
     15 O4          -0.6340     0.6910    -0.7720 o          1 9CX      -0.540500
     16 C9          -0.6720    -0.8800     0.9750 ca         1 9CX      -0.216600
     17 C3          -1.9120    -2.5270     2.8170 ca         1 9CX       0.161100
     18 O2          -2.5140    -3.3360     3.7250 oh         1 9CX      -0.521100
     19 C1          -2.0560    -1.0920     0.8990 ca         1 9CX       0.197100
     20 O1          -2.7880    -0.4940    -0.0730 oh         1 9CX      -0.482100
     21 H1           1.8470    -1.1860     3.1020 hc         1 9CX       0.070700
     22 H2           2.0680    -2.1200     1.5840 hc         1 9CX       0.070700
     23 H3          -3.7390    -2.0880     1.7800 ha         1 9CX       0.152000
     24 H4           0.0430    -2.7940     3.6610 ha         1 9CX       0.145000
     25 H6           5.8350     0.7030     0.0160 hc         1 9CX       0.048200
     26 H7           6.8820     2.9160    -0.1730 hc         1 9CX       0.043200
     27 H8           5.4170     3.6820     0.4660 hc         1 9CX       0.043200
     28 H9           5.4320     3.8380    -1.9840 hc         1 9CX       0.050200
     29 H10          5.6270     2.0800    -2.1100 hc         1 9CX       0.050200
     30 H11          3.2670     2.6870    -2.4250 h1         1 9CX       0.082700
     31 H12          3.2160     4.7940    -1.1990 hc         1 9CX       0.042700
     32 H13          3.5880     3.9620     0.3170 hc         1 9CX       0.042700
     33 H14          2.0310     3.6970    -0.4790 hc         1 9CX       0.042700
     34 H15          3.4620     2.2220     1.1600 h1         1 9CX       0.037700
     35 H18          1.6030     0.8560     1.8840 h1         1 9CX       0.052700
     36 H19         -2.7900    -2.8240     4.4680 ho         1 9CX       0.428000
     37 H20         -3.2520    -1.1500    -0.5660 ho         1 9CX       0.428000
     38 C10          3.4850     0.0700     1.1990 c3         1 9CX      -0.071400
     39 H5           5.7810     1.5270     1.5850 hc         1 9CX       0.048200
     40 H16          3.8320    -0.7380     0.5660 hc         1 9CX       0.065700
     41 H17          3.9340    -0.0220     2.1810 hc         1 9CX       0.065700
@<TRIPOS>BOND
     1    10     9 1
     2     8     9 1
     3     8     7 1
     4     9    11 1
     5     7     6 1
     6    11    12 1
     7     6    12 1
     8    12    38 1
     9    38    13 1
    10     3    13 1
    11     3     2 1
    12    13    14 1
    13     5     2 ar
    14     5    17 ar
    15     2    16 ar
    16    14     1 1
    17    18    17 1
    18    17     4 ar
    19    16     1 1
    20    16    19 ar
    21     1    15 2
    22     4    19 ar
    23    19    20 1
    24     3    21 1
    25     3    22 1
    26     4    23 1
    27     5    24 1
    28     6    39 1
    29     6    25 1
    30     7    26 1
    31     7    27 1
    32     8    28 1
    33     8    29 1
    34     9    30 1
    35    10    31 1
    36    10    32 1
    37    10    33 1
    38    12    34 1
    39    38    40 1
    40    38    41 1
    41    13    35 1
    42    18    36 1
    43    20    37 1
@<TRIPOS>SUBSTRUCTURE
     1 9CX         1 TEMP              0 ****  ****    0 ROOT
