@<TRIPOS>MOLECULE
molecule
   45    47     1     0     0
SMALL
bcc


@<TRIPOS>ATOM
      1 N1           0.0000     0.0000     0.0000 nb         1 9CY      -0.690000
      2 C4           7.3890    -3.0110     9.1470 ca         1 9CY      -0.123500
      3 C5           7.2650    -4.3450     8.8060 ca         1 9CY      -0.123000
      4 C6           7.1750    -4.7130     7.4760 ca         1 9CY      -0.128000
      5 C7           7.2100    -3.7470     6.4880 ca         1 9CY      -0.123000
      6 C8           7.3330    -2.4130     6.8290 ca         1 9CY      -0.123500
      7 C10          3.3890     0.0060     6.1170 ca         1 9CY      -0.137600
      8 C13          2.0450     0.0030     3.6920 cp         1 9CY      -0.022000
      9 C15          4.1090     0.0050     4.9190 ca         1 9CY      -0.085000
     10 C17         -0.0710     0.0030     2.3470 ca         1 9CY      -0.246300
     11 C20          2.0280     0.0000     1.1840 ca         1 9CY      -0.246300
     12 O1           3.4790     0.0210     8.4510 o          1 9CY      -0.617100
     13 N            5.4530     0.0130     7.4340 ns         1 9CY      -0.566900
     14 C1           6.1630     0.0210     8.7150 c3         1 9CY       0.129700
     15 C2           7.5540    -0.5910     8.5310 c3         1 9CY      -0.046100
     16 C3           7.4180    -2.0450     8.1590 ca         1 9CY      -0.084300
     17 C            6.3010     1.4610     9.2120 c3         1 9CY       0.118400
     18 O            7.1340     2.1980     8.3140 oh         1 9CY      -0.618800
     19 C14          3.4400     0.0020     3.7150 ca         1 9CY      -0.124500
     20 C12          1.3270     0.0050     4.8870 ca         1 9CY      -0.124500
     21 C11          1.9930     0.0070     6.0910 ca         1 9CY      -0.085000
     22 C16          1.3260     0.0030     2.3940 cp         1 9CY      -0.003000
     23 C19          1.3190     0.0000     0.0000 ca         1 9CY       0.422700
     24 C18         -0.6990     0.0020     1.1190 ca         1 9CY       0.422700
     25 H2           7.2390    -5.1020     9.5800 ha         1 9CY       0.129500
     26 H3           7.0780    -5.7580     7.2080 ha         1 9CY       0.130000
     27 H4           7.1420    -4.0350     5.4460 ha         1 9CY       0.129500
     28 H5           7.3580    -1.6560     6.0550 ha         1 9CY       0.125500
     29 H6           5.1920     0.0040     4.9380 ha         1 9CY       0.144500
     30 H7          -0.6510     0.0040     3.2620 ha         1 9CY       0.141000
     31 H8           3.1110     0.0000     1.1770 ha         1 9CY       0.141000
     32 H9           5.9680     0.0480     6.5760 hn         1 9CY       0.321500
     33 H10          5.6060    -0.5600     9.4400 h1         1 9CY       0.091700
     34 H11          8.1110    -0.5060     9.4560 hc         1 9CY       0.064200
     35 H12          8.0790    -0.0640     7.7430 hc         1 9CY       0.064200
     36 H13          5.3220     1.9220     9.2580 h1         1 9CY       0.035700
     37 H14          6.7460     1.4610    10.2000 h1         1 9CY       0.035700
     38 H15          7.2300     3.0820     8.6290 ho         1 9CY       0.405000
     39 H16          3.9980     0.0010     2.7870 ha         1 9CY       0.138500
     40 H17          0.2430     0.0060     4.8670 ha         1 9CY       0.138500
     41 H18          1.4340     0.0080     7.0200 ha         1 9CY       0.144500
     42 H19          1.8530    -0.0020    -0.9420 h4         1 9CY       0.024600
     43 H20         -1.7810     0.0010     1.0720 h4         1 9CY       0.024600
     44 C9           4.1050     0.0130     7.4090 c          1 9CY       0.674700
     45 H1           7.4570    -2.7230    10.1890 ha         1 9CY       0.125500
@<TRIPOS>BOND
     1     5     4 ar
     2     5     6 ar
     3     4     3 ar
     4    12    44 2
     5     6    16 ar
     6     3     2 ar
     7    44     7 1
     8    44    13 1
     9     9    19 ar
    10     9     7 ar
    11    16     2 ar
    12    16    15 1
    13    14    13 1
    14    14    15 1
    15    14    17 1
    16    19     8 ar
    17     7    21 ar
    18    18    17 1
    19    11    23 ar
    20    11    22 ar
    21     8    20 ar
    22     8    22 1
    23    21    20 ar
    24    23     1 ar
    25    22    10 ar
    26     1    24 ar
    27    10    24 ar
    28     2    45 1
    29     3    25 1
    30     4    26 1
    31     5    27 1
    32     6    28 1
    33     9    29 1
    34    10    30 1
    35    11    31 1
    36    13    32 1
    37    14    33 1
    38    15    34 1
    39    15    35 1
    40    17    36 1
    41    17    37 1
    42    18    38 1
    43    19    39 1
    44    20    40 1
    45    21    41 1
    46    23    42 1
    47    24    43 1
@<TRIPOS>SUBSTRUCTURE
     1 9CY         1 TEMP              0 ****  ****    0 ROOT
