@<TRIPOS>MOLECULE
molecule
   76    79     1     0     0
SMALL
bcc


@<TRIPOS>ATOM
      1 O3           0.0000     0.0000     0.0000 oh         1 9CZ      -0.597800
      2 C25          1.4290     0.0000     0.0000 c3         1 9CZ       0.189300
      3 C24          1.9450     0.0000     1.4420 c3         1 9CZ      -0.098400
      4 C23          1.4850    -1.2710     2.1570 c3         1 9CZ       0.152100
      5 O2           1.8440    -1.1960     3.5380 oh         1 9CZ      -0.610800
      6 C22          2.1550    -2.4940     1.5230 c3         1 9CZ      -0.042200
      7 C26          1.9400    -1.2480    -0.6910 ce         1 9CZ      -0.088200
      8 C27          2.4870    -1.2010    -1.9070 c2         1 9CZ      -0.211000
      9 C21          1.8040    -2.5210     0.0490 ce         1 9CZ      -0.082200
     10 C20          1.3900    -3.6510    -0.5590 cf         1 9CZ      -0.118000
     11 C19          1.0590    -3.6360    -1.9870 cf         1 9CZ      -0.163000
     12 C15          0.6500    -4.7530    -2.5880 c2         1 9CZ      -0.093400
     13 C2           0.2980    -4.7990    -4.0450 c3         1 9CZ      -0.035500
     14 C16          0.5100    -6.0750    -1.8450 c3         1 9CZ      -0.044200
     15 C17         -0.8600    -6.6990    -2.1040 c3         1 9CZ      -0.079400
     16 C18         -1.2010    -6.7200    -3.6030 c3         1 9CZ      -0.065400
     17 C1          -1.1760    -5.2900    -4.1020 c3         1 9CZ      -0.059000
     18 C           -2.0140    -4.4140    -3.1680 c3         1 9CZ      -0.094100
     19 C5          -1.5840    -5.0200    -5.5430 c3         1 9CZ      -0.052700
     20 C4          -0.7470    -3.7860    -5.9730 c3         1 9CZ      -0.082400
     21 C3           0.2070    -3.4550    -4.7720 c3         1 9CZ      -0.078400
     22 C6          -3.0780    -4.7020    -5.6210 c3         1 9CZ      -0.059700
     23 C14         -3.8810    -5.8910    -5.0910 c3         1 9CZ      -0.089100
     24 C7          -3.4660    -4.4350    -7.0770 c3         1 9CZ       0.131100
     25 C13         -4.9530    -4.0260    -7.1720 c3         1 9CZ      -0.113400
     26 C12         -5.4430    -4.6920    -8.4770 c3         1 9CZ      -0.108400
     27 C8          -4.1940    -5.4220    -9.0180 c3         1 9CZ       0.148100
     28 O           -3.3630    -5.6460    -7.8560 os         1 9CZ      -0.395600
     29 C9          -4.5900    -6.7550    -9.6540 c3         1 9CZ       0.155800
     30 C11         -3.3310    -7.5060   -10.0920 c3         1 9CZ      -0.120100
     31 O1          -5.3080    -7.5440    -8.7020 oh         1 9CZ      -0.592800
     32 C10         -5.4790    -6.4950   -10.8720 c3         1 9CZ      -0.120100
     33 H1          -0.3140     0.7750    -0.4350 ho         1 9CZ       0.400000
     34 H2           1.7990     0.8770    -0.5170 h1         1 9CZ       0.036700
     35 H3           3.0280     0.0360     1.4350 hc         1 9CZ       0.056700
     36 H4           1.5540     0.8660     1.9620 hc         1 9CZ       0.056700
     37 H5           0.4100    -1.3650     2.0640 h1         1 9CZ       0.053700
     38 H6           1.0640    -1.2230     4.0670 ho         1 9CZ       0.402000
     39 H7           3.2300    -2.4210     1.6390 hc         1 9CZ       0.057700
     40 H8           1.7910    -3.3960     1.9990 hc         1 9CZ       0.057700
     41 H9           2.8440    -2.1100    -2.3760 ha         1 9CZ       0.122000
     42 H10          2.5740    -0.2540    -2.4250 ha         1 9CZ       0.122000
     43 H11          1.3010    -4.5700     0.0080 ha         1 9CZ       0.134000
     44 H12          1.1840    -2.7260    -2.5620 ha         1 9CZ       0.146000
     45 H13          0.9490    -5.4810    -4.5770 hc         1 9CZ       0.065700
     46 H14          0.6250    -5.8990    -0.7820 hc         1 9CZ       0.048200
     47 H15          1.2810    -6.7560    -2.1840 hc         1 9CZ       0.048200
     48 H16         -1.6130    -6.1240    -1.5800 hc         1 9CZ       0.043200
     49 H17         -0.8590    -7.7160    -1.7300 hc         1 9CZ       0.043200
     50 H18         -2.1890    -7.1410    -3.7470 hc         1 9CZ       0.046700
     51 H19         -0.4650    -7.3070    -4.1380 hc         1 9CZ       0.046700
     52 H20         -1.4870    -4.2800    -2.2310 hc         1 9CZ       0.040700
     53 H21         -2.1800    -3.4490    -3.6300 hc         1 9CZ       0.040700
     54 H22         -2.9670    -4.8940    -2.9810 hc         1 9CZ       0.040700
     55 H23         -1.3420    -5.8720    -6.1660 hc         1 9CZ       0.069700
     56 H24         -1.4010    -2.9450    -6.1690 hc         1 9CZ       0.042200
     57 H25         -0.1640    -4.0240    -6.8540 hc         1 9CZ       0.042200
     58 H26          1.1810    -3.1470    -5.1300 hc         1 9CZ       0.047200
     59 H27         -0.2320    -2.7010    -4.1300 hc         1 9CZ       0.047200
     60 H28         -3.2930    -3.8250    -5.0230 hc         1 9CZ       0.061700
     61 H29         -4.0200    -5.7850    -4.0220 hc         1 9CZ       0.041367
     62 H30         -4.8480    -5.9210    -5.5790 hc         1 9CZ       0.041367
     63 H31         -3.3440    -6.8100    -5.2960 hc         1 9CZ       0.041367
     64 H32         -2.8380    -3.6620    -7.5040 h1         1 9CZ       0.041700
     65 H33         -5.0450    -2.9490    -7.2390 hc         1 9CZ       0.053200
     66 H34         -5.5050    -4.4090    -6.3220 hc         1 9CZ       0.053200
     67 H35         -6.2340    -5.4020    -8.2660 hc         1 9CZ       0.057700
     68 H36         -5.7770    -3.9410    -9.1830 hc         1 9CZ       0.057700
     69 H37         -3.6750    -4.7960    -9.7340 h1         1 9CZ       0.047700
     70 H38         -2.8100    -7.8780    -9.2190 hc         1 9CZ       0.044033
     71 H39         -3.6100    -8.3390   -10.7270 hc         1 9CZ       0.044033
     72 H40         -2.6830    -6.8350   -10.6420 hc         1 9CZ       0.044033
     73 H41         -5.5070    -8.3860    -9.0770 ho         1 9CZ       0.400000
     74 H42         -5.0300    -5.7260   -11.4890 hc         1 9CZ       0.044033
     75 H43         -5.5790    -7.4080   -11.4470 hc         1 9CZ       0.044033
     76 H44         -6.4570    -6.1670   -10.5420 hc         1 9CZ       0.044033
@<TRIPOS>BOND
     1    30    29 1
     2    26    27 1
     3    26    25 1
     4    29    27 1
     5    29    32 1
     6    29    31 1
     7    27    28 1
     8    25    24 1
     9    28    24 1
    10    24    22 1
    11    18    17 1
    12    22    23 1
    13    22    19 1
    14     8     7 2
    15    17    19 1
    16    17    16 1
    17    17    13 1
    18    19    20 1
    19    20    21 1
    20    16    15 1
    21    15    14 1
    22     7     9 1
    23     7     2 1
    24     1     2 1
    25     3     2 1
    26     3     4 1
    27     6     9 1
    28     6     4 1
    29     9    10 2
    30    10    11 1
    31    11    12 2
    32     4     5 1
    33    21    13 1
    34    12    13 1
    35    12    14 1
    36     1    33 1
    37     2    34 1
    38     3    35 1
    39     3    36 1
    40     4    37 1
    41     5    38 1
    42     6    39 1
    43     6    40 1
    44     8    41 1
    45     8    42 1
    46    10    43 1
    47    11    44 1
    48    13    45 1
    49    14    46 1
    50    14    47 1
    51    15    48 1
    52    15    49 1
    53    16    50 1
    54    16    51 1
    55    18    52 1
    56    18    53 1
    57    18    54 1
    58    19    55 1
    59    20    56 1
    60    20    57 1
    61    21    58 1
    62    21    59 1
    63    22    60 1
    64    23    61 1
    65    23    62 1
    66    23    63 1
    67    24    64 1
    68    25    65 1
    69    25    66 1
    70    26    67 1
    71    26    68 1
    72    27    69 1
    73    30    70 1
    74    30    71 1
    75    30    72 1
    76    31    73 1
    77    32    74 1
    78    32    75 1
    79    32    76 1
@<TRIPOS>SUBSTRUCTURE
     1 9CZ         1 TEMP              0 ****  ****    0 ROOT
