@<TRIPOS>MOLECULE
molecule
   57    61     1     0     0
SMALL
bcc


@<TRIPOS>ATOM
      1 N1           0.0000     0.0000     0.0000 n3         1 9D1      -0.709600
      2 N3          -6.0280   -10.9700    -1.7980 nb         1 9D1      -0.696000
      3 C4          -2.0360    -0.5440    -1.2480 c3         1 9D1       0.242800
      4 C5          -0.5260    -0.7700    -1.1350 c3         1 9D1       0.128800
      5 C6           1.4790     0.0000     0.0000 c3         1 9D1       0.144300
      6 C7           1.9310     0.0000     1.4720 c3         1 9D1      -0.088900
      7 C8           0.6230    -0.0320     2.2960 c3         1 9D1      -0.088900
      8 C10         -3.0010    -2.6050    -2.1910 cc         1 9D1       0.686100
      9 C13         -4.0530    -6.6270    -0.0920 ca         1 9D1      -0.100000
     10 C15         -4.3990    -6.2210    -2.4430 ca         1 9D1      -0.054000
     11 C17         -5.0270    -8.4410    -1.5050 cp         1 9D1       0.012000
     12 C20         -5.6290   -10.5750    -0.6040 ca         1 9D1       0.423200
     13 C21         -5.1180    -9.3080    -0.4120 ca         1 9D1      -0.252300
     14 C22         -4.0810     1.3160    -3.5370 ca         1 9D1      -0.121000
     15 C24         -6.3720     1.2710    -4.2330 ca         1 9D1      -0.143000
     16 C           -6.2380    -0.0650    -4.5820 ca         1 9D1       0.108100
     17 C23         -5.2950     1.9570    -3.7070 ca         1 9D1      -0.116000
     18 C2          -3.9420    -0.0130    -3.8940 ca         1 9D1      -0.111300
     19 C1          -5.0180    -0.7040    -4.4170 ca         1 9D1      -0.139000
     20 C3          -2.6160    -0.7060    -3.7130 c3         1 9D1       0.284100
     21 N           -2.5600    -1.3110    -2.3810 nh         1 9D1      -0.755600
     22 C9          -0.4050    -0.6120     1.2910 c3         1 9D1       0.144300
     23 S           -3.6530    -3.6380    -3.4550 ss         1 9D1      -0.174100
     24 C16         -3.8900    -4.9380    -2.2900 ca         1 9D1      -0.073100
     25 C11         -3.4580    -4.4910    -1.0360 ca         1 9D1       0.182400
     26 N2          -2.9890    -3.2290    -1.0630 nd         1 9D1      -0.678100
     27 C14         -4.4840    -7.0700    -1.3460 cp         1 9D1      -0.062000
     28 C12         -3.5540    -5.3720     0.0640 ca         1 9D1      -0.100000
     29 C19         -5.9590   -10.1830    -2.8550 ca         1 9D1       0.423200
     30 C18         -5.4610    -8.9010    -2.7510 ca         1 9D1      -0.252300
     31 H2          -2.2320     0.5100    -1.4040 h1         1 9D1       0.070200
     32 H3          -2.5190    -0.8700    -0.3360 h1         1 9D1       0.070200
     33 H4          -0.0420    -0.4440    -2.0480 h1         1 9D1       0.042700
     34 H5          -0.3290    -1.8240    -0.9790 h1         1 9D1       0.042700
     35 H6           1.8470    -0.8890    -0.4980 h1         1 9D1       0.043950
     36 H7           1.8470     0.8890    -0.4980 h1         1 9D1       0.043950
     37 H8           2.4900     0.9010     1.6920 hc         1 9D1       0.049200
     38 H9           2.5260    -0.8800     1.6810 hc         1 9D1       0.049200
     39 H10          0.7280    -0.6850     3.1540 hc         1 9D1       0.049200
     40 H11          0.3380     0.9690     2.5990 hc         1 9D1       0.049200
     41 H12         -4.1190    -7.2880     0.7630 ha         1 9D1       0.138000
     42 H13         -4.7310    -6.5590    -3.4170 ha         1 9D1       0.138000
     43 H14         -5.7040   -11.2550     0.2360 h4         1 9D1       0.022600
     44 H15         -4.7920    -8.9900     0.5710 ha         1 9D1       0.139500
     45 H16         -3.2370     1.8570    -3.1260 ha         1 9D1       0.133000
     46 H17         -7.3220     1.7740    -4.3660 ha         1 9D1       0.143000
     47 H18         -7.2720    -0.6920    -6.0410 ho         1 9D1       0.419000
     48 H19         -5.4000     2.9990    -3.4300 ha         1 9D1       0.136000
     49 H20         -4.9100    -1.7460    -4.6920 ha         1 9D1       0.148000
     50 H21         -1.8140     0.0150    -3.8170 h1         1 9D1       0.064200
     51 H22         -2.5070    -1.4780    -4.4660 h1         1 9D1       0.064200
     52 H23         -0.3240    -1.6910     1.2440 h1         1 9D1       0.043950
     53 H24         -1.4110    -0.3080     1.5580 h1         1 9D1       0.043950
     54 H25         -3.2250    -5.0450     1.0430 ha         1 9D1       0.145000
     55 H26         -6.2980   -10.5480    -3.8170 h4         1 9D1       0.022600
     56 H27         -5.4070    -8.2600    -3.6230 ha         1 9D1       0.139500
     57 O           -7.2960    -0.7420    -5.1000 oh         1 9D1      -0.519100
@<TRIPOS>BOND
     1    15    17 ar
     2    15    16 ar
     3    17    14 ar
     4    57    16 1
     5    16    19 ar
     6    14    18 ar
     7    19    18 ar
     8    18    20 1
     9    29     2 ar
    10    29    30 ar
    11     2    12 ar
    12    30    11 ar
    13    12    13 ar
    14    11    13 ar
    15    11    27 1
    16     9    27 ar
    17     9    28 ar
    18    27    10 ar
    19    28    25 ar
    20    10    24 ar
    21    25    24 ar
    22    25    26 1
    23    24    23 1
    24    26     8 2
    25    20    21 1
    26    23     8 1
    27     8    21 1
    28    21     3 1
    29     3     4 1
    30     4     1 1
    31     1     5 1
    32     1    22 1
    33     5     6 1
    34     6     7 1
    35    22     7 1
    36     3    31 1
    37     3    32 1
    38     4    33 1
    39     4    34 1
    40     5    35 1
    41     5    36 1
    42     6    37 1
    43     6    38 1
    44     7    39 1
    45     7    40 1
    46     9    41 1
    47    10    42 1
    48    12    43 1
    49    13    44 1
    50    14    45 1
    51    15    46 1
    52    57    47 1
    53    17    48 1
    54    19    49 1
    55    20    50 1
    56    20    51 1
    57    22    52 1
    58    22    53 1
    59    28    54 1
    60    29    55 1
    61    30    56 1
@<TRIPOS>SUBSTRUCTURE
     1 9D1         1 TEMP              0 ****  ****    0 ROOT
