@<TRIPOS>MOLECULE
molecule
   23    22     1     0     0
SMALL
bcc


@<TRIPOS>ATOM
      1 C4           0.0000     0.0000     0.0000 c3         1 9D2       0.148733
      2 C5           2.0390    -1.2490    -0.7220 c3         1 9D2       0.148733
      3 C            1.5290     1.2500    -2.1640 c3         1 9D2      -0.093100
      4 O            1.5640    -1.1670     2.1150 oh         1 9D2      -0.615467
      5 C1           2.0400     1.2500    -0.7210 c3         1 9D2      -0.071400
      6 C2           1.5300     0.0000     0.0000 c3         1 9D2      -0.049000
      7 C3           2.0400     0.0000     1.4420 c3         1 9D2       0.148733
      8 O1          -0.4760     1.1670     0.6740 oh         1 9D2      -0.615467
      9 O2           3.4690    -1.2480    -0.7220 oh         1 9D2      -0.615467
     10 H1          -0.3610    -0.8850     0.5100 h1         1 9D2       0.032033
     11 H2          -0.3610     0.0000    -1.0210 h1         1 9D2       0.032033
     12 H3           1.6780    -1.2480    -1.7430 h1         1 9D2       0.032033
     13 H4           1.6790    -2.1330    -0.2120 h1         1 9D2       0.032033
     14 H5           0.9260     0.3670    -2.3330 hc         1 9D2       0.033367
     15 H6           2.3720     1.2480    -2.8450 hc         1 9D2       0.033367
     16 H7           0.9290     2.1360    -2.3340 hc         1 9D2       0.033367
     17 H8           1.8790    -1.1670     3.0040 ho         1 9D2       0.403000
     18 H9           1.6790     2.1350    -0.2110 hc         1 9D2       0.056700
     19 H10          3.1230     1.2500    -0.7220 hc         1 9D2       0.056700
     20 H11          1.6790     0.8840     1.9530 h1         1 9D2       0.032033
     21 H12          3.1240    -0.0000     1.4420 h1         1 9D2       0.032033
     22 H13         -1.4160     1.1310     0.7390 ho         1 9D2       0.403000
     23 H14          3.7830    -2.0530    -1.1010 ho         1 9D2       0.403000
@<TRIPOS>BOND
     1     9     2 1
     2     1     8 1
     3     1     6 1
     4     5     3 1
     5     5     6 1
     6     6     2 1
     7     6     7 1
     8     4     7 1
     9     1    10 1
    10     1    11 1
    11     2    12 1
    12     2    13 1
    13     3    14 1
    14     3    15 1
    15     3    16 1
    16     4    17 1
    17     5    18 1
    18     5    19 1
    19     7    20 1
    20     7    21 1
    21     8    22 1
    22     9    23 1
@<TRIPOS>SUBSTRUCTURE
     1 9D2         1 TEMP              0 ****  ****    0 ROOT
