@<TRIPOS>MOLECULE
molecule
   38    41     1     0     0
SMALL
bcc


@<TRIPOS>ATOM
      1 N1           0.0000     0.0000     0.0000 nc         1 9D4      -0.678100
      2 C4           1.2890     0.0000     0.0000 cd         1 9D4       0.678100
      3 C5          -0.6310    -0.0020     1.1900 ca         1 9D4       0.181400
      4 C6          -2.0190    -0.0030     1.4510 ca         1 9D4      -0.098000
      5 C7          -2.4850    -0.0040     2.7280 ca         1 9D4      -0.100000
      6 C8          -1.5990    -0.0040     3.8090 cp         1 9D4      -0.060000
      7 C10          0.2540    -0.0020     2.2740 ca         1 9D4      -0.070100
      8 C13         -1.7730    -0.0060     7.5660 ca         1 9D4       0.423200
      9 C15         -3.4940    -0.0050     5.4500 ca         1 9D4      -0.251800
     10 C17          4.0010    -1.1930    -4.9750 ca         1 9D4      -0.105000
     11 C            3.9930     1.2030    -4.9830 ca         1 9D4       0.131900
     12 C18          4.4900     0.0040    -5.4660 ca         1 9D4      -0.157000
     13 C16          3.0190    -1.1930    -4.0040 ca         1 9D4      -0.126000
     14 C2           2.5260     0.0030    -3.5170 ca         1 9D4      -0.098300
     15 C1           3.0160     1.2010    -4.0020 ca         1 9D4      -0.152000
     16 C3           1.4530     0.0020    -2.4580 c3         1 9D4       0.291100
     17 N            2.0770     0.0010    -1.1320 nu         1 9D4      -0.851200
     18 S            1.9020     0.0000     1.6480 ss         1 9D4      -0.170100
     19 C9          -0.2290    -0.0030     3.5770 ca         1 9D4      -0.056000
     20 C11         -2.1190    -0.0050     5.1980 cp         1 9D4       0.010000
     21 C14         -3.9350    -0.0110     6.7570 ca         1 9D4       0.423200
     22 N2          -3.0780    -0.0060     7.7610 nb         1 9D4      -0.694000
     23 C12         -1.2470    -0.0050     6.2910 ca         1 9D4      -0.251800
     24 H1          -2.7200    -0.0030     0.6250 ha         1 9D4       0.146000
     25 H2          -3.5530    -0.0040     2.9100 ha         1 9D4       0.138000
     26 H3          -1.1050    -0.0040     8.4190 h4         1 9D4       0.023100
     27 H4          -4.2030    -0.0090     4.6310 ha         1 9D4       0.139500
     28 H5           4.3880    -2.1320    -5.3540 ha         1 9D4       0.141000
     29 H6           5.2600     0.0040    -6.2280 ha         1 9D4       0.149000
     30 H7           2.6360    -2.1310    -3.6210 ha         1 9D4       0.141000
     31 H8           2.6300     2.1380    -3.6210 ha         1 9D4       0.151000
     32 H9           0.8370     0.8860    -2.5670 h1         1 9D4       0.063700
     33 H10          0.8380    -0.8830    -2.5680 h1         1 9D4       0.063700
     34 H11          3.0740     0.0330    -1.0480 hn         1 9D4       0.458800
     35 H12          0.4620    -0.0030     4.4110 ha         1 9D4       0.139000
     36 H13         -4.9980    -0.0110     6.9620 h4         1 9D4       0.023100
     37 H14         -0.1750    -0.0050     6.1390 ha         1 9D4       0.139500
     38 F            4.4700     2.3720    -5.4620 f          1 9D4      -0.136900
@<TRIPOS>BOND
     1    38    11 1
     2    11    12 ar
     3    11    15 ar
     4    12    10 ar
     5    15    14 ar
     6    10    13 ar
     7    14    13 ar
     8    14    16 1
     9    18     2 1
    10    18     7 1
    11    17     2 1
    12    17    16 1
    13     2     1 2
    14    19     7 ar
    15    19     6 ar
    16     7     3 ar
    17     1     3 1
    18    23    20 ar
    19    23     8 ar
    20     3     4 ar
    21     6    20 1
    22     6     5 ar
    23    20     9 ar
    24     8    22 ar
    25    22    21 ar
    26     9    21 ar
    27     4     5 ar
    28     4    24 1
    29     5    25 1
    30     8    26 1
    31     9    27 1
    32    10    28 1
    33    12    29 1
    34    13    30 1
    35    15    31 1
    36    16    32 1
    37    16    33 1
    38    17    34 1
    39    19    35 1
    40    21    36 1
    41    23    37 1
@<TRIPOS>SUBSTRUCTURE
     1 9D4         1 TEMP              0 ****  ****    0 ROOT
