@<TRIPOS>MOLECULE
9D4
   38    41     1     0     0
SMALL
bcc


@<TRIPOS>ATOM
      1 N1           0.0000     0.0000     0.0000 nc         1 9D4      -0.571100
      2 C4           1.2890     0.0000     0.0000 cd         1 9D4       0.507100
      3 C5          -0.6310    -0.0020     1.1900 ca         1 9D4       0.139400
      4 C6          -2.0190    -0.0030     1.4510 ca         1 9D4      -0.072000
      5 C7          -2.4850    -0.0040     2.7280 ca         1 9D4      -0.078000
      6 C8          -1.5990    -0.0040     3.8090 cp         1 9D4      -0.059000
      7 C10          0.2540    -0.0020     2.2740 ca         1 9D4      -0.042100
      8 C13         -1.7730    -0.0060     7.5660 ca         1 9D4       0.410200
      9 C15         -3.4940    -0.0050     5.4500 ca         1 9D4      -0.226800
     10 C17          4.0010    -1.1930    -4.9750 ca         1 9D4      -0.074000
     11 C            3.9930     1.2030    -4.9830 ca         1 9D4       0.105900
     12 C18          4.4900     0.0040    -5.4660 ca         1 9D4      -0.123000
     13 C16          3.0190    -1.1930    -4.0040 ca         1 9D4      -0.096000
     14 C2           2.5260     0.0030    -3.5170 ca         1 9D4      -0.103300
     15 C1           3.0160     1.2010    -4.0020 ca         1 9D4      -0.117000
     16 C3           1.4530     0.0020    -2.4580 c3         1 9D4       0.223100
     17 N            2.0770     0.0010    -1.1320 nu         1 9D4      -0.421200
     18 S            1.9020     0.0000     1.6480 ss         1 9D4      -0.244100
     19 C9          -0.2290    -0.0030     3.5770 ca         1 9D4      -0.022000
     20 C11         -2.1190    -0.0050     5.1980 cp         1 9D4       0.012000
     21 C14         -3.9350    -0.0110     6.7570 ca         1 9D4       0.410200
     22 N2          -3.0780    -0.0060     7.7610 nb         1 9D4      -0.588000
     23 C12         -1.2470    -0.0050     6.2910 ca         1 9D4      -0.226800
     24 H1          -2.7200    -0.0030     0.6250 ha         1 9D4       0.115000
     25 H2          -3.5530    -0.0040     2.9100 ha         1 9D4       0.113000
     26 H3          -1.1050    -0.0040     8.4190 h4         1 9D4      -0.020900
     27 H4          -4.2030    -0.0090     4.6310 ha         1 9D4       0.120000
     28 H5           4.3880    -2.1320    -5.3540 ha         1 9D4       0.110000
     29 H6           5.2600     0.0040    -6.2280 ha         1 9D4       0.121000
     30 H7           2.6360    -2.1310    -3.6210 ha         1 9D4       0.113000
     31 H8           2.6300     2.1380    -3.6210 ha         1 9D4       0.125000
     32 H9           0.8370     0.8860    -2.5670 h1         1 9D4       0.033200
     33 H10          0.8380    -0.8830    -2.5680 h1         1 9D4       0.033200
     34 H11          3.0740     0.0330    -1.0480 hn         1 9D4       0.302800
     35 H12          0.4620    -0.0030     4.4110 ha         1 9D4       0.117000
     36 H13         -4.9980    -0.0110     6.9620 h4         1 9D4      -0.020900
     37 H14         -0.1750    -0.0050     6.1390 ha         1 9D4       0.120000
     38 F            4.4700     2.3720    -5.4620 f          1 9D4      -0.124900
@<TRIPOS>BOND
     1     1     2 2   
     2     1     3 1   
     3     2    17 1   
     4     2    18 1   
     5     3     4 ar  
     6     3     7 ar  
     7     4     5 ar  
     8     4    24 1   
     9     5     6 ar  
    10     5    25 1   
    11     6    19 ar  
    12     6    20 1   
    13     7    18 1   
    14     7    19 ar  
    15     8    22 ar  
    16     8    23 ar  
    17     8    26 1   
    18     9    20 ar  
    19     9    21 ar  
    20     9    27 1   
    21    10    12 ar  
    22    10    13 ar  
    23    10    28 1   
    24    11    12 ar  
    25    11    15 ar  
    26    11    38 1   
    27    12    29 1   
    28    13    14 ar  
    29    13    30 1   
    30    14    15 ar  
    31    14    16 1   
    32    15    31 1   
    33    16    17 1   
    34    16    32 1   
    35    16    33 1   
    36    17    34 1   
    37    19    35 1   
    38    20    23 ar  
    39    21    22 ar  
    40    21    36 1   
    41    23    37 1   
@<TRIPOS>SUBSTRUCTURE
     1 9D4         1 TEMP              0 ****  ****    0 ROOT
