@<TRIPOS>MOLECULE
9D5
   41    43     1     0     0
SMALL
bcc


@<TRIPOS>ATOM
      1 OAE          0.0000     0.0000     0.0000 oh         1 9D5      -0.582800
      2 CAD          1.4280     0.0000     0.0000 c3         1 9D5       0.197400
      3 CAC          1.9390     0.0000     1.4430 c3         1 9D5       0.163800
      4 NAB          1.5510    -1.2520     2.0970 nh         1 9D5      -0.386000
      5 CAA          2.4400    -2.4150     2.0420 c3         1 9D5       0.211100
      6 CAF          0.3320    -1.3360     2.7750 ca         1 9D5       0.094600
      7 CAK         -0.0370    -2.5230     3.3980 ca         1 9D5      -0.184500
      8 CAJ         -1.2430    -2.6030     4.0670 ca         1 9D5      -0.034000
      9 CAG         -0.5100    -0.2340     2.8340 ca         1 9D5      -0.184500
     10 CAH         -1.7140    -0.3200     3.5050 ca         1 9D5      -0.034000
     11 CAI         -2.0820    -1.5050     4.1180 ca         1 9D5      -0.198300
     12 CAL         -3.3960    -1.5970     4.8480 c3         1 9D5       0.270200
     13 NAR         -3.7520    -0.2740     5.3760 nu         1 9D5      -0.424600
     14 CAQ         -3.0880     0.1910     6.5060 ca         1 9D5       0.040600
     15 CAS         -2.8760     1.5400     6.7290 ca         1 9D5      -0.112000
     16 CAT         -2.2060     1.9480     7.8660 ca         1 9D5      -0.065000
     17 CAU         -1.7440     1.0180     8.7840 ca         1 9D5      -0.132000
     18 CAV         -1.9470    -0.3310     8.5770 ca         1 9D5      -0.014000
     19 CAP         -2.6230    -0.7560     7.4360 ca         1 9D5      -0.192600
     20 CAN         -2.8720    -2.1840     7.1680 c          1 9D5       0.651100
     21 OAO         -2.7130    -3.0110     8.0460 o          1 9D5      -0.683500
     22 NAM         -3.2760    -2.5610     5.9420 ns         1 9D5      -0.227900
     23 H1          -0.3140     0.1820    -0.8700 ho         1 9D5       0.388000
     24 H2           1.7890    -0.8840    -0.5110 h1         1 9D5      -0.011300
     25 H3           1.7890     0.8850    -0.5110 h1         1 9D5      -0.011300
     26 H4           3.0190     0.0890     1.4440 h1         1 9D5       0.030700
     27 H5           1.5080     0.8370     1.9790 h1         1 9D5       0.030700
     28 H6           1.9310    -3.2350     1.5510 h1         1 9D5       0.004033
     29 H7           2.7130    -2.7090     3.0480 h1         1 9D5       0.004033
     30 H8           3.3340    -2.1600     1.4860 h1         1 9D5       0.004033
     31 H9           0.6190    -3.3830     3.3580 ha         1 9D5       0.119500
     32 H10         -1.5330    -3.5280     4.5500 ha         1 9D5       0.107500
     33 H11         -0.2230     0.6940     2.3550 ha         1 9D5       0.119500
     34 H12         -2.3720     0.5390     3.5490 ha         1 9D5       0.107500
     35 H13         -3.2350     2.2730     6.0150 ha         1 9D5       0.113000
     36 H14         -2.0390     3.0040     8.0410 ha         1 9D5       0.101000
     37 H15         -1.2200     1.3530     9.6710 ha         1 9D5       0.106000
     38 H16         -1.5840    -1.0540     9.2970 ha         1 9D5       0.123000
     39 H17         -3.4990    -3.5220     5.7740 hn         1 9D5       0.189500
     40 H18         -4.1690    -1.9270     4.1650 h2         1 9D5       0.038700
     41 H19         -4.7400    -0.2310     5.5290 hn         1 9D5       0.261800
@<TRIPOS>BOND
     1     1     2 1   
     2     1    23 1   
     3     2     3 1   
     4     2    24 1   
     5     2    25 1   
     6     3     4 1   
     7     3    26 1   
     8     3    27 1   
     9     4     5 1   
    10     4     6 1   
    11     5    28 1   
    12     5    29 1   
    13     5    30 1   
    14     6     7 ar  
    15     6     9 ar  
    16     7     8 ar  
    17     7    31 1   
    18     8    11 ar  
    19     8    32 1   
    20     9    10 ar  
    21     9    33 1   
    22    10    11 ar  
    23    10    34 1   
    24    11    12 1   
    25    12    13 1   
    26    12    22 1   
    27    12    40 1   
    28    13    14 1   
    29    13    41 1   
    30    14    15 ar  
    31    14    19 ar  
    32    15    16 ar  
    33    15    35 1   
    34    16    17 ar  
    35    16    36 1   
    36    17    18 ar  
    37    17    37 1   
    38    18    19 ar  
    39    18    38 1   
    40    19    20 1   
    41    20    21 2   
    42    20    22 1   
    43    22    39 1   
@<TRIPOS>SUBSTRUCTURE
     1 9D5         1 TEMP              0 ****  ****    0 ROOT
