@<TRIPOS>MOLECULE
molecule
   41    43     1     0     0
SMALL
bcc


@<TRIPOS>ATOM
      1 OAE          0.0000     0.0000     0.0000 oh         1 9D5      -0.598800
      2 CAD          1.4280     0.0000     0.0000 c3         1 9D5       0.112400
      3 CAC          1.9390     0.0000     1.4430 c3         1 9D5       0.240800
      4 NAB          1.5510    -1.2520     2.0970 nh         1 9D5      -0.734000
      5 CAA          2.4400    -2.4150     2.0420 c3         1 9D5       0.231100
      6 CAF          0.3320    -1.3360     2.7750 ca         1 9D5       0.219600
      7 CAK         -0.0370    -2.5230     3.3980 ca         1 9D5      -0.200000
      8 CAJ         -1.2430    -2.6030     4.0670 ca         1 9D5      -0.061000
      9 CAG         -0.5100    -0.2340     2.8340 ca         1 9D5      -0.200000
     10 CAH         -1.7140    -0.3200     3.5050 ca         1 9D5      -0.061000
     11 CAI         -2.0820    -1.5050     4.1180 ca         1 9D5      -0.178300
     12 CAL         -3.3960    -1.5970     4.8480 c3         1 9D5       0.425200
     13 NAR         -3.7520    -0.2740     5.3760 nu         1 9D5      -0.728600
     14 CAQ         -3.0880     0.1910     6.5060 ca         1 9D5       0.137600
     15 CAS         -2.8760     1.5400     6.7290 ca         1 9D5      -0.139000
     16 CAT         -2.2060     1.9480     7.8660 ca         1 9D5      -0.095000
     17 CAU         -1.7440     1.0180     8.7840 ca         1 9D5      -0.157000
     18 CAV         -1.9470    -0.3310     8.5770 ca         1 9D5      -0.051000
     19 CAP         -2.6230    -0.7560     7.4360 ca         1 9D5      -0.185600
     20 CAN         -2.8720    -2.1840     7.1680 c          1 9D5       0.722100
     21 OAO         -2.7130    -3.0110     8.0460 o          1 9D5      -0.645500
     22 NAM         -3.2760    -2.5610     5.9420 ns         1 9D5      -0.607900
     23 H1          -0.3140     0.1820    -0.8700 ho         1 9D5       0.399000
     24 H2           1.7890    -0.8840    -0.5110 h1         1 9D5       0.023200
     25 H3           1.7890     0.8850    -0.5110 h1         1 9D5       0.023200
     26 H4           3.0190     0.0890     1.4440 h1         1 9D5       0.057700
     27 H5           1.5080     0.8370     1.9790 h1         1 9D5       0.057700
     28 H6           1.9310    -3.2350     1.5510 h1         1 9D5       0.034367
     29 H7           2.7130    -2.7090     3.0480 h1         1 9D5       0.034367
     30 H8           3.3340    -2.1600     1.4860 h1         1 9D5       0.034367
     31 H9           0.6190    -3.3830     3.3580 ha         1 9D5       0.135000
     32 H10         -1.5330    -3.5280     4.5500 ha         1 9D5       0.136000
     33 H11         -0.2230     0.6940     2.3550 ha         1 9D5       0.135000
     34 H12         -2.3720     0.5390     3.5490 ha         1 9D5       0.136000
     35 H13         -3.2350     2.2730     6.0150 ha         1 9D5       0.141000
     36 H14         -2.0390     3.0040     8.0410 ha         1 9D5       0.132000
     37 H15         -1.2200     1.3530     9.6710 ha         1 9D5       0.134000
     38 H16         -1.5840    -1.0540     9.2970 ha         1 9D5       0.154000
     39 H17         -3.4990    -3.5220     5.7740 hn         1 9D5       0.326500
     40 H18         -4.1690    -1.9270     4.1650 h2         1 9D5       0.074700
     41 H19         -4.7400    -0.2310     5.5290 hn         1 9D5       0.384800
@<TRIPOS>BOND
     1    17    18 ar
     2    17    16 ar
     3    18    19 ar
     4    16    15 ar
     5    21    20 2
     6    19    20 1
     7    19    14 ar
     8    15    14 ar
     9    20    22 1
    10    14    13 1
    11    22    12 1
    12    13    12 1
    13    12    11 1
    14    11     8 ar
    15    11    10 ar
    16     8     7 ar
    17    10     9 ar
    18     7     6 ar
    19     9     6 ar
    20     6     4 1
    21     4     5 1
    22     4     3 1
    23     3     2 1
    24     2     1 1
    25     1    23 1
    26     2    24 1
    27     2    25 1
    28     3    26 1
    29     3    27 1
    30     5    28 1
    31     5    29 1
    32     5    30 1
    33     7    31 1
    34     8    32 1
    35     9    33 1
    36    10    34 1
    37    15    35 1
    38    16    36 1
    39    17    37 1
    40    18    38 1
    41    22    39 1
    42    12    40 1
    43    13    41 1
@<TRIPOS>SUBSTRUCTURE
     1 9D5         1 TEMP              0 ****  ****    0 ROOT
