@<TRIPOS>MOLECULE
molecule
   53    55     1     0     0
SMALL
bcc


@<TRIPOS>ATOM
      1 C1           0.0000     0.0000     0.0000 c3         1 9D8       0.078000
      2 C2           1.5300     0.0000     0.0000 c3         1 9D8      -0.126400
      3 O2           0.2970     6.4670    -1.7000 o          1 9D8      -0.629800
      4 C4          -0.5750    -1.2570     2.1290 c3         1 9D8       0.160300
      5 C5           0.7230    -1.5020     2.8530 ca         1 9D8      -0.117300
      6 C7           2.0920    -1.2450     4.8010 ca         1 9D8      -0.133000
      7 C8           3.1060    -1.9520     4.1830 ca         1 9D8      -0.122000
      8 C9           2.9330    -2.4230     2.8950 ca         1 9D8      -0.133000
      9 C10          1.7400    -2.2030     2.2320 ca         1 9D8      -0.111500
     10 C11         -0.8990     2.4050     1.1740 ca         1 9D8      -0.083600
     11 C12          0.0270     2.6190     0.1510 ca         1 9D8      -0.127500
     12 C13         -0.0190     3.7840    -0.5850 ca         1 9D8      -0.036000
     13 C14         -0.9810     4.7400    -0.3120 ca         1 9D8      -0.298500
     14 C15         -1.4860     4.9670    -3.5390 ca         1 9D8       0.143600
     15 C16         -2.3650     4.0090    -4.0290 ca         1 9D8      -0.139000
     16 C17         -1.9250     3.0770    -4.9500 ca         1 9D8       0.039400
     17 C18         -0.6110     3.0970    -5.3840 ca         1 9D8      -0.133000
     18 C19          0.2660     4.0490    -4.8970 ca         1 9D8      -0.104000
     19 C20         -0.1680     4.9840    -3.9780 ca         1 9D8      -0.160000
     20 C21         -1.9020     4.5350     0.7000 ca         1 9D8      -0.036000
     21 C22         -1.8700     3.3710     1.4390 ca         1 9D8      -0.127500
     22 S           -1.0320     6.2270    -1.2570 sy         1 9D8       1.422200
     23 O1          -1.7770     7.1640    -0.4910 o          1 9D8      -0.629800
     24 N1          -1.9290     5.9140    -2.6140 nu         1 9D8      -0.770500
     25 Cl          -3.0210     1.8790    -5.5630 cl         1 9D8      -0.103400
     26 C           -0.8560     1.1580     1.9660 c          1 9D8       0.671700
     27 O           -1.1520     1.1760     3.1450 o          1 9D8      -0.600100
     28 N           -0.4880     0.0000     1.3820 n          1 9D8      -0.478800
     29 C3           2.0380     0.1590    -1.4350 c3         1 9D8      -0.098100
     30 C6           0.9010    -1.0200     4.1360 ca         1 9D8      -0.111500
     31 H1          -0.3610     0.8840    -0.5110 h1         1 9D8       0.063200
     32 H2          -0.3610    -0.8850    -0.5100 h1         1 9D8       0.063200
     33 H3           1.8910    -0.9360     0.4100 hc         1 9D8       0.062200
     34 H4           1.8910     0.8230     0.6050 hc         1 9D8       0.062200
     35 H5          -1.3830    -1.1950     2.8470 h1         1 9D8       0.065700
     36 H6          -0.7650    -2.0730     1.4420 h1         1 9D8       0.065700
     37 H7           2.2280    -0.8710     5.8090 ha         1 9D8       0.130500
     38 H8           4.0400    -2.1270     4.7030 ha         1 9D8       0.129000
     39 H9           3.7290    -2.9750     2.4090 ha         1 9D8       0.130500
     40 H10          1.6050    -2.5730     1.2230 ha         1 9D8       0.139500
     41 H11          0.7820     1.8720    -0.0610 ha         1 9D8       0.164000
     42 H12          0.7000     3.9510    -1.3780 ha         1 9D8       0.154000
     43 H13         -3.3930     3.9930    -3.6900 ha         1 9D8       0.150000
     44 H14         -0.2680     2.3650    -6.1050 ha         1 9D8       0.146000
     45 H15          1.2940     4.0630    -5.2390 ha         1 9D8       0.145000
     46 H16          0.5200     5.7300    -3.5980 ha         1 9D8       0.184000
     47 H17         -2.6540     5.2870     0.9070 ha         1 9D8       0.154000
     48 H18         -2.5920     3.2110     2.2310 ha         1 9D8       0.164000
     49 H19         -2.7640     6.4360    -2.7930 hn         1 9D8       0.468800
     50 H20          2.6680    -0.6840    -1.6900 hc         1 9D8       0.037700
     51 H21          1.1960     0.2000    -2.1140 hc         1 9D8       0.037700
     52 H22          2.6110     1.0750    -1.5150 hc         1 9D8       0.037700
     53 H23          0.1070    -0.4660     4.6210 ha         1 9D8       0.139500
@<TRIPOS>BOND
     1     8     7 ar
     2     8     9 ar
     3     7     6 ar
     4     9     5 ar
     5     6    30 ar
     6     5    30 ar
     7     5     4 1
     8     4    28 1
     9    28     1 1
    10    28    26 1
    11     2    29 1
    12     2     1 1
    13    23    22 2
    14    12    11 ar
    15    12    13 ar
    16    11    10 ar
    17     3    22 2
    18    13    22 1
    19    13    20 ar
    20    22    24 1
    21    10    26 1
    22    10    21 ar
    23    26    27 2
    24    20    21 ar
    25    24    14 1
    26    14    15 ar
    27    14    19 ar
    28    15    16 ar
    29    19    18 ar
    30    16    25 1
    31    16    17 ar
    32    18    17 ar
    33     1    31 1
    34     1    32 1
    35     2    33 1
    36     2    34 1
    37     4    35 1
    38     4    36 1
    39     6    37 1
    40     7    38 1
    41     8    39 1
    42     9    40 1
    43    11    41 1
    44    12    42 1
    45    15    43 1
    46    17    44 1
    47    18    45 1
    48    19    46 1
    49    20    47 1
    50    21    48 1
    51    24    49 1
    52    29    50 1
    53    29    51 1
    54    29    52 1
    55    30    53 1
@<TRIPOS>SUBSTRUCTURE
     1 9D8         1 TEMP              0 ****  ****    0 ROOT
