@<TRIPOS>MOLECULE
molecule
   36    37     1     0     0
SMALL
bcc


@<TRIPOS>ATOM
      1 O2P          0.0000     0.0000     0.0000 o          1 9D9      -0.745833
      2 P            1.6100     0.0000     0.0000 p5         1 9D9       1.011700
      3 O3P          2.1470     0.0000     1.5180 o          1 9D9      -0.745833
      4 O1P          2.1020    -1.2090    -0.6970 o          1 9D9      -0.745833
      5 C14          2.2180     1.4880    -0.8600 c3         1 9D9       0.263400
      6 F1           3.6160     1.4870    -0.8600 f          1 9D9      -0.264300
      7 F2           1.7510     1.4880    -2.1780 f          1 9D9      -0.264300
      8 C13          1.7080     2.7380    -0.1400 c3         1 9D9      -0.121400
      9 C12          2.2180     3.9860    -0.8610 c3         1 9D9      -0.084400
     10 C11          1.7080     5.2360    -0.1390 c3         1 9D9      -0.076400
     11 C10          2.2190     6.4850    -0.8610 c3         1 9D9      -0.013100
     12 C9           1.7160     7.7160    -0.1520 cc         1 9D9      -0.108300
     13 C8           0.6070     8.4150    -0.4640 cd         1 9D9      -0.101300
     14 N7           0.4720     9.4620     0.3950 na         1 9D9      -0.114100
     15 C5           1.5220     9.4390     1.2880 cd         1 9D9      -0.249900
     16 C4           2.3210     8.3370     0.9630 cc         1 9D9       0.139400
     17 N3           3.4250     8.0780     1.6910 nc         1 9D9      -0.551100
     18 C2           3.7610     8.8420     2.7030 cd         1 9D9       0.278800
     19 N2           4.8930     8.5420     3.4200 nz         1 9D9      -0.684600
     20 N1           3.0160     9.9270     3.0640 ns         1 9D9      -0.470400
     21 C6           1.9010    10.2510     2.3740 c          1 9D9       0.754100
     22 O6           1.2300    11.2190     2.6920 o          1 9D9      -0.657500
     23 H3           0.6250     2.7380    -0.1390 hc         1 9D9       0.069200
     24 H4           2.0690     2.7380     0.8820 hc         1 9D9       0.069200
     25 H5           1.8560     3.9860    -1.8820 hc         1 9D9       0.042700
     26 H6           3.3010     3.9860    -0.8620 hc         1 9D9       0.042700
     27 H7           0.6250     5.2360    -0.1390 hc         1 9D9       0.041700
     28 H8           2.0690     5.2360     0.8820 hc         1 9D9       0.041700
     29 H9           1.8580     6.4850    -1.8830 hc         1 9D9       0.050200
     30 H10          3.3020     6.4850    -0.8610 hc         1 9D9       0.050200
     31 H11         -0.0720     8.1810    -1.2750 h4         1 9D9       0.186000
     32 H12         -0.2670    10.1370     0.3810 hn         1 9D9       0.312700
     33 H13          5.4560     9.3640     3.5130 hn         1 9D9       0.440800
     34 H14          4.6350     8.2090     4.3270 hn         1 9D9       0.440800
     35 H15          3.2990    10.4870     3.8440 hn         1 9D9       0.318500
     36 H23          5.4140     7.8350     2.9400 hn         1 9D9       0.440800
@<TRIPOS>BOND
     1     4     2 1
     2     6     5 1
     3     7     5 1
     4     5     2 1
     5     5     8 1
     6     2     1 1
     7     2     3 1
     8     9     8 1
     9     9    10 1
    10    10    11 1
    11    11    12 1
    12    17    16 1
    13    17    18 2
    14    12    16 1
    15    12    13 2
    16    19    18 1
    17    16    15 2
    18    18    20 1
    19    13    14 1
    20    15    14 1
    21    15    21 1
    22    20    21 1
    23    21    22 2
    24     8    23 1
    25     8    24 1
    26     9    25 1
    27     9    26 1
    28    10    27 1
    29    10    28 1
    30    11    29 1
    31    11    30 1
    32    13    31 1
    33    14    32 1
    34    19    33 1
    35    19    34 1
    36    20    35 1
    37    36    19 1
@<TRIPOS>SUBSTRUCTURE
     1 9D9         1 TEMP              0 ****  ****    0 ROOT
