@<TRIPOS>MOLECULE
9D9
   20    19     1     0     0
SMALL
bcc


@<TRIPOS>ATOM
      1 O2P         0.0540    0.4000    0.0170 o         1 9D9     -0.931833
      2 P           1.5260    0.0740    0.1080 p5        1 9D9      1.185700
      3 O3P         2.1430    0.3870    1.4500 o         1 9D9     -0.931833
      4 O1P         1.9520   -1.2200   -0.5260 o         1 9D9     -0.931833
      5 C14         2.2550    1.4160   -0.9410 c3        1 9D9      0.256400
      6 F1          3.6210    1.3030   -1.0360 f         1 9D9     -0.292300
      7 F2          1.8510    1.3150   -2.2510 f         1 9D9     -0.292300
      8 C13         1.7830    2.6870   -0.2420 c3        1 9D9     -0.152400
      9 C12         2.2320    3.9760   -0.8840 c3        1 9D9     -0.067400
     10 C11         1.7220    5.1860   -0.1290 c3        1 9D9     -0.080400
     11 C10         2.1670    6.4790   -0.7650 c3        1 9D9     -0.084100
     12 H13         2.1570    2.5970    0.8140 hc        1 9D9      0.093700
     13 H13A        0.6620    2.6070   -0.2120 hc        1 9D9      0.093700
     14 H12         3.3530    4.0010   -0.9220 hc        1 9D9      0.019700
     15 H12A        1.8650    4.0110   -1.9430 hc        1 9D9      0.019700
     16 H11         2.0880    5.1420    0.9300 hc        1 9D9      0.033700
     17 H11A        0.6010    5.1520   -0.0910 hc        1 9D9      0.033700
     18 H10         1.7800    7.3570   -0.1940 hc        1 9D9      0.009367
     19 H10A        1.7910    6.5500   -1.8150 hc        1 9D9      0.009367
     20 H10B        3.2820    6.5400   -0.7910 hc        1 9D9      0.009367
@<TRIPOS>BOND
     1    1    2 1   
     2    2    3 1   
     3    2    4 1   
     4    2    5 1   
     5    5    6 1   
     6    5    7 1   
     7    5    8 1   
     8    8    9 1   
     9    8   12 1   
    10    8   13 1   
    11    9   10 1   
    12    9   14 1   
    13    9   15 1   
    14   10   11 1   
    15   10   16 1   
    16   10   17 1   
    17   11   18 1   
    18   11   19 1   
    19   11   20 1   
@<TRIPOS>SUBSTRUCTURE
     1 9D9         1 TEMP              0 ****  ****    0 ROOT
