@<TRIPOS>MOLECULE
9DA
   16    17     1     0     0
SMALL
bcc


@<TRIPOS>ATOM
      1 N1           0.0000     0.0000     0.0000 nb         1 9DA      -0.627000
      2 C2           1.3200     0.0000     0.0000 ca         1 9DA       0.594900
      3 N3           2.0250     0.0000     1.1100 nb         1 9DA      -0.570000
      4 C4           1.4130     0.0000     2.2970 ca         1 9DA       0.396100
      5 C5           0.0090     0.0050     2.3440 ca         1 9DA      -0.474800
      6 C6          -0.6920     0.0000     1.1340 ca         1 9DA       0.535200
      7 N6          -2.0770     0.0000     1.1190 nv         1 9DA      -0.657500
      8 N7          -0.3560    -0.0000     3.6710 na         1 9DA       0.388600
      9 C8           0.7590    -0.0000     4.4570 cc         1 9DA      -0.262100
     10 C9           1.8620    -0.0000     3.6860 cd         1 9DA      -0.272800
     11 HC2          1.8420    -0.0000    -0.9490 h5         1 9DA      -0.001900
     12 HN61        -2.5760     0.8670     1.0950 hn         1 9DA       0.276800
     13 HN62        -2.5760    -0.8670     1.0950 hn         1 9DA       0.276800
     14 HN7         -1.2980    -0.0000     4.0090 hn         1 9DA       0.116700
     15 HC8          0.7570    -0.0000     5.5400 h4         1 9DA       0.143000
     16 HC9          2.8890    -0.0000     4.0310 ha         1 9DA       0.138000
@<TRIPOS>BOND
     1     1     2 ar  
     2     1     6 ar  
     3     2     3 ar  
     4     2    11 1   
     5     3     4 ar  
     6     4     5 ar  
     7     4    10 1   
     8     5     6 ar  
     9     5     8 1   
    10     6     7 1   
    11     7    12 1   
    12     7    13 1   
    13     8     9 1   
    14     8    14 1   
    15     9    10 2   
    16     9    15 1   
    17    10    16 1   
@<TRIPOS>SUBSTRUCTURE
     1 9DA         1 TEMP              0 ****  ****    0 ROOT
