@<TRIPOS>MOLECULE
molecule
   57    61     1     0     0
SMALL
bcc


@<TRIPOS>ATOM
      1 C1           0.0000     0.0000     0.0000 cc         1 9DB      -0.085300
      2 C2           1.3780     0.0000     0.0000 cd         1 9DB      -0.309100
      3 C3           1.7970     0.0000     1.3480 cd         1 9DB       0.363200
      4 C4           2.2540    -0.0030    -1.1880 cd         1 9DB       0.116700
      5 C5           3.0830    -0.5480    -3.2290 ca         1 9DB      -0.028200
      6 C6           3.4090    -1.0380    -4.4900 ca         1 9DB      -0.129000
      7 C7           4.5120    -0.5390    -5.1690 ca         1 9DB       0.009600
      8 C8           5.3320    -0.2350    -7.3820 c          1 9DB       0.632100
      9 C18          5.9500     1.9860    -2.8630 c          1 9DB       0.699100
     10 N5           5.8740     2.6270    -1.6760 ns         1 9DB      -0.305900
     11 N6           4.9740     2.5220    -0.6200 nd         1 9DB      -0.475300
     12 C19          3.9160     1.7870    -0.4350 cc         1 9DB       0.478500
     13 C20          3.3630     0.7880    -1.3630 cc         1 9DB      -0.263800
     14 N1           0.7330     0.0020     2.1050 nc         1 9DB      -0.490800
     15 N           -0.4030     0.0070     1.2860 na         1 9DB       0.086400
     16 C           -1.7940     0.0100     1.7490 c3         1 9DB       0.056600
     17 C21          3.9040     0.4380    -2.6820 ca         1 9DB      -0.046800
     18 N2           2.0920    -0.8030    -2.3030 na         1 9DB      -0.173400
     19 C17          5.0250     0.9440    -3.3580 ca         1 9DB      -0.082600
     20 C16          5.3290     0.4480    -4.6160 ca         1 9DB      -0.092000
     21 N3           4.8200    -1.0480    -6.4360 ns         1 9DB      -0.434100
     22 O            5.6040     0.9150    -7.1100 o          1 9DB      -0.562100
     23 C9           5.5660    -0.7570    -8.7760 c3         1 9DB       0.002500
     24 N4           6.5340     0.1080    -9.4650 nz         1 9DB      -0.845600
     25 C10          4.2450    -0.7600    -9.5480 c3         1 9DB      -0.033700
     26 C15          4.4840    -1.2890   -10.9640 c3         1 9DB      -0.155900
     27 C14          3.1620    -1.2920   -11.7360 c3         1 9DB      -0.058400
     28 C13          2.1540    -2.1910   -11.0180 c3         1 9DB      -0.082400
     29 C12          1.9160    -1.6620    -9.6030 c3         1 9DB      -0.058400
     30 C11          3.2380    -1.6580    -8.8310 c3         1 9DB      -0.155900
     31 H1          -0.6410     0.0010    -0.8730 h4         1 9DB       0.175000
     32 H2           2.8230    -0.0020     1.6950 h4         1 9DB       0.062100
     33 H3           2.7940    -1.8040    -4.9470 ha         1 9DB       0.131000
     34 H4           6.6030     3.2960    -1.5260 hn         1 9DB       0.363500
     35 H5           3.3940     1.9160     0.5050 h4         1 9DB       0.056800
     36 H6          -2.2960     0.8950     1.3780 h1         1 9DB       0.065033
     37 H7          -1.8130     0.0110     2.8330 h1         1 9DB       0.065033
     38 H8          -2.2990    -0.8740     1.3800 h1         1 9DB       0.065033
     39 H9           1.3590    -1.4740    -2.4220 hn         1 9DB       0.305700
     40 H10          6.1850     0.8230    -5.1640 ha         1 9DB       0.184000
     41 H11          4.7160    -2.0260    -6.6210 hn         1 9DB       0.334500
     42 H12          5.9570    -1.7660    -8.7230 hx         1 9DB       0.122700
     43 H13          6.9420    -0.8060    -9.4450 hn         1 9DB       0.483800
     44 H14          6.2460     0.4150   -10.3730 hn         1 9DB       0.483800
     45 H16          3.8510     0.2480    -9.6030 hc         1 9DB       0.070700
     46 H17          4.2380    -0.2420   -10.8310 hc         1 9DB       0.063950
     47 H18          5.4430    -1.2490   -11.4650 hc         1 9DB       0.063950
     48 H19          2.7720    -0.2820   -11.7860 hc         1 9DB       0.058450
     49 H20          3.3310    -1.6680   -12.7380 hc         1 9DB       0.058450
     50 H21          2.5460    -3.2000   -10.9640 hc         1 9DB       0.063200
     51 H22          1.2180    -2.1910   -11.5640 hc         1 9DB       0.063200
     52 H23          1.5290    -0.6520    -9.6570 hc         1 9DB       0.058450
     53 H24          1.2040    -2.3010    -9.0940 hc         1 9DB       0.058450
     54 H25          3.6280    -2.6680    -8.7810 hc         1 9DB       0.063950
     55 H26          3.0680    -1.2810    -7.8300 hc         1 9DB       0.063950
     56 O1           6.8690     2.2970    -3.5960 o          1 9DB      -0.645500
     57 H43          7.0370     0.7310    -8.8660 hn         1 9DB       0.483800
@<TRIPOS>BOND
     1    16    15 1
     2    15     1 1
     3    15    14 1
     4     1     2 2
     5    24    23 1
     6    14     3 2
     7     2     3 1
     8     2     4 1
     9    18     4 1
    10    18     5 1
    11    22     8 2
    12    23     8 1
    13    23    25 1
    14     8    21 1
    15     4    13 2
    16    30    25 1
    17    30    29 1
    18     6     5 ar
    19     6     7 ar
    20     5    17 ar
    21    25    26 1
    22    29    28 1
    23    21     7 1
    24     7    20 ar
    25    13    17 1
    26    13    12 1
    27    17    19 ar
    28    26    27 1
    29    28    27 1
    30    20    19 ar
    31    12    11 2
    32    19     9 1
    33    11    10 1
    34     9    10 1
    35     9    56 2
    36     1    31 1
    37     3    32 1
    38     6    33 1
    39    10    34 1
    40    12    35 1
    41    16    36 1
    42    16    37 1
    43    16    38 1
    44    18    39 1
    45    20    40 1
    46    21    41 1
    47    23    42 1
    48    24    43 1
    49    24    44 1
    50    25    45 1
    51    26    46 1
    52    26    47 1
    53    27    48 1
    54    27    49 1
    55    28    50 1
    56    28    51 1
    57    29    52 1
    58    29    53 1
    59    30    54 1
    60    30    55 1
    61    57    24 1
@<TRIPOS>SUBSTRUCTURE
     1 9DB         1 TEMP              0 ****  ****    0 ROOT
