@<TRIPOS>MOLECULE
9DB
   57    61     1     0     0
SMALL
bcc


@<TRIPOS>ATOM
      1 C1           0.0000     0.0000     0.0000 cc         1 9DB      -0.236300
      2 C2           1.3780     0.0000     0.0000 cd         1 9DB      -0.305100
      3 C3           1.7970     0.0000     1.3480 cd         1 9DB       0.425200
      4 C4           2.2540    -0.0030    -1.1880 cd         1 9DB      -0.052300
      5 C5           3.0830    -0.5480    -3.2290 ca         1 9DB      -0.222200
      6 C6           3.4090    -1.0380    -4.4900 ca         1 9DB      -0.073000
      7 C7           4.5120    -0.5390    -5.1690 ca         1 9DB      -0.159400
      8 C8           5.3320    -0.2350    -7.3820 c          1 9DB       0.520100
      9 C18          5.9500     1.9860    -2.8630 c          1 9DB       0.613100
     10 N5           5.8740     2.6270    -1.6760 ns         1 9DB       0.086100
     11 N6           4.9740     2.5220    -0.6200 nd         1 9DB      -0.554300
     12 C19          3.9160     1.7870    -0.4350 cc         1 9DB       0.517500
     13 C20          3.3630     0.7880    -1.3630 cc         1 9DB      -0.267800
     14 N1           0.7330     0.0020     2.1050 nc         1 9DB      -0.631800
     15 N           -0.4030     0.0070     1.2860 na         1 9DB       0.521400
     16 C           -1.7940     0.0100     1.7490 c3         1 9DB       0.015600
     17 C21          3.9040     0.4380    -2.6820 ca         1 9DB      -0.037800
     18 N2           2.0920    -0.8030    -2.3030 na         1 9DB       0.370600
     19 C17          5.0250     0.9440    -3.3580 ca         1 9DB      -0.078600
     20 C16          5.3290     0.4480    -4.6160 ca         1 9DB      -0.069000
     21 N3           4.8200    -1.0480    -6.4360 ns         1 9DB       0.053900
     22 O            5.6040     0.9150    -7.1100 o          1 9DB      -0.615100
     23 C9           5.5660    -0.7570    -8.7760 c3         1 9DB      -0.155500
     24 N4           6.5340     0.1080    -9.4650 nz         1 9DB      -0.007600
     25 C10          4.2450    -0.7600    -9.5480 c3         1 9DB       0.016300
     26 C15          4.4840    -1.2890   -10.9640 c3         1 9DB      -0.117400
     27 C14          3.1620    -1.2920   -11.7360 c3         1 9DB       0.009100
     28 C13          2.1540    -2.1910   -11.0180 c3         1 9DB      -0.029400
     29 C12          1.9160    -1.6620    -9.6030 c3         1 9DB       0.009100
     30 C11          3.2380    -1.6580    -8.8310 c3         1 9DB      -0.117400
     31 H1          -0.6410     0.0010    -0.8730 h4         1 9DB       0.146000
     32 H2           2.8230    -0.0020     1.6950 h4         1 9DB       0.015100
     33 H3           2.7940    -1.8040    -4.9470 ha         1 9DB       0.102000
     34 H4           6.6030     3.2960    -1.5260 hn         1 9DB       0.202500
     35 H5           3.3940     1.9160     0.5050 h4         1 9DB       0.001800
     36 H6          -2.2960     0.8950     1.3780 h1         1 9DB       0.029367
     37 H7          -1.8130     0.0110     2.8330 h1         1 9DB       0.029367
     38 H8          -2.2990    -0.8740     1.3800 h1         1 9DB       0.029367
     39 H9           1.3590    -1.4740    -2.4220 hn         1 9DB       0.121700
     40 H10          6.1850     0.8230    -5.1640 ha         1 9DB       0.166000
     41 H11          4.7160    -2.0260    -6.6210 hn         1 9DB       0.173500
     42 H12          5.9570    -1.7660    -8.7230 hx         1 9DB       0.101700
     43 H13          6.9420    -0.8060    -9.4450 hn         1 9DB       0.260467
     44 H14          6.2460     0.4150   -10.3730 hn         1 9DB       0.260467
     45 H16          3.8510     0.2480    -9.6030 hc         1 9DB       0.045700
     46 H17          4.2380    -0.2420   -10.8310 hc         1 9DB       0.036450
     47 H18          5.4430    -1.2490   -11.4650 hc         1 9DB       0.036450
     48 H19          2.7720    -0.2820   -11.7860 hc         1 9DB       0.025200
     49 H20          3.3310    -1.6680   -12.7380 hc         1 9DB       0.025200
     50 H21          2.5460    -3.2000   -10.9640 hc         1 9DB       0.032700
     51 H22          1.2180    -2.1910   -11.5640 hc         1 9DB       0.032700
     52 H23          1.5290    -0.6520    -9.6570 hc         1 9DB       0.025200
     53 H24          1.2040    -2.3010    -9.0940 hc         1 9DB       0.025200
     54 H25          3.6280    -2.6680    -8.7810 hc         1 9DB       0.036450
     55 H26          3.0680    -1.2810    -7.8300 hc         1 9DB       0.036450
     56 O1           6.8690     2.2970    -3.5960 o          1 9DB      -0.686500
     57 H43          7.0370     0.7310    -8.8660 hn         1 9DB       0.260467
@<TRIPOS>BOND
     1     1     2 2   
     2     1    15 1   
     3     1    31 1   
     4     2     3 1   
     5     2     4 1   
     6     3    14 2   
     7     3    32 1   
     8     4    13 2   
     9     4    18 1   
    10     5     6 ar  
    11     5    17 ar  
    12     5    18 1   
    13     6     7 ar  
    14     6    33 1   
    15     7    20 ar  
    16     7    21 1   
    17     8    21 1   
    18     8    22 2   
    19     8    23 1   
    20     9    10 1   
    21     9    19 1   
    22     9    56 2   
    23    10    11 1   
    24    10    34 1   
    25    11    12 2   
    26    12    13 1   
    27    12    35 1   
    28    13    17 1   
    29    14    15 1   
    30    15    16 1   
    31    16    36 1   
    32    16    37 1   
    33    16    38 1   
    34    17    19 ar  
    35    18    39 1   
    36    19    20 ar  
    37    20    40 1   
    38    21    41 1   
    39    23    24 1   
    40    23    25 1   
    41    23    42 1   
    42    24    43 1   
    43    24    44 1   
    44    24    57 1   
    45    25    26 1   
    46    25    30 1   
    47    25    45 1   
    48    26    27 1   
    49    26    46 1   
    50    26    47 1   
    51    27    28 1   
    52    27    48 1   
    53    27    49 1   
    54    28    29 1   
    55    28    50 1   
    56    28    51 1   
    57    29    30 1   
    58    29    52 1   
    59    29    53 1   
    60    30    54 1   
    61    30    55 1   
@<TRIPOS>SUBSTRUCTURE
     1 9DB         1 TEMP              0 ****  ****    0 ROOT
