@<TRIPOS>MOLECULE
9DE
   33    34     1     0     0
SMALL
bcc


@<TRIPOS>ATOM
      1 CAA          0.0000     0.0000     0.0000 ca         1 9DE      -0.160500
      2 CAB          1.3810     0.0000     0.0000 ca         1 9DE       0.035500
      3 CAC          2.0740     0.0000     1.1970 ca         1 9DE      -0.257500
      4 SAR          3.8360    -0.0000     1.1930 sy         1 9DE       0.935200
      5 OAS          4.2400    -0.5460     2.4410 o          1 9DE      -0.497800
      6 OAT          4.2350    -0.5440    -0.0590 o          1 9DE      -0.497800
      7 NAU          4.3250     1.5810     1.1930 nz         1 9DE      -0.131500
      8 CAD          1.3870    -0.0010     2.3970 ca         1 9DE       0.035500
      9 CAE          0.0050    -0.0020     2.4040 ca         1 9DE      -0.160500
     10 CAF         -0.6930     0.0050     1.2030 ca         1 9DE       0.176600
     11 NAG         -2.0900     0.0050     1.2070 nu         1 9DE      -0.414500
     12 SAH         -2.9150    -1.0270     2.2050 sy         1 9DE       1.048200
     13 OAI         -2.3850    -0.8340     3.5090 o          1 9DE      -0.564800
     14 OAJ         -4.2930    -0.8690     1.8950 o          1 9DE      -0.564800
     15 CAK         -2.4840    -2.6680     1.7310 ca         1 9DE      -0.175500
     16 CAL         -1.4680    -3.3340     2.3920 ca         1 9DE       0.010000
     17 CAM         -1.1300    -4.6210     2.0210 ca         1 9DE      -0.107000
     18 CAN         -1.8070    -5.2440     0.9870 ca         1 9DE       0.080100
     19 Br          -1.3450    -7.0060     0.4800 br         1 9DE      -0.081100
     20 CAO         -2.8230    -4.5770     0.3270 ca         1 9DE      -0.107000
     21 CAP         -3.1650    -3.2920     0.7020 ca         1 9DE       0.010000
     22 H1          -0.5420     0.0030    -0.9380 ha         1 9DE       0.163500
     23 H2           1.9220    -0.0040    -0.9390 ha         1 9DE       0.125500
     24 H3           3.9760     2.0390     2.0120 hn         1 9DE       0.313133
     25 H4           3.9710     2.0410     0.3780 hn         1 9DE       0.313133
     26 H5           1.9320    -0.0040     3.3330 ha         1 9DE       0.125500
     27 H6          -0.5320    -0.0000     3.3450 ha         1 9DE       0.163500
     28 H7          -2.5920     0.6580     0.6370 hn         1 9DE       0.365800
     29 H8          -0.9380    -2.8460     3.2010 ha         1 9DE       0.124500
     30 H9          -0.3340    -5.1430     2.5390 ha         1 9DE       0.129000
     31 H10         -3.3550    -5.0650    -0.4810 ha         1 9DE       0.129000
     32 H11         -3.9600    -2.7700     0.1840 ha         1 9DE       0.124500
     33 HAU3         5.3250     1.6210     1.1980 hn         1 9DE       0.313133
@<TRIPOS>BOND
     1     1     2 ar  
     2     1    10 ar  
     3     1    22 1   
     4     2     3 ar  
     5     2    23 1   
     6     3     4 1   
     7     3     8 ar  
     8     4     5 2   
     9     4     6 2   
    10     4     7 1   
    11     7    24 1   
    12     7    25 1   
    13     7    33 1   
    14     8     9 ar  
    15     8    26 1   
    16     9    10 ar  
    17     9    27 1   
    18    10    11 1   
    19    11    12 1   
    20    11    28 1   
    21    12    13 2   
    22    12    14 2   
    23    12    15 1   
    24    15    16 ar  
    25    15    21 ar  
    26    16    17 ar  
    27    16    29 1   
    28    17    18 ar  
    29    17    30 1   
    30    18    19 1   
    31    18    20 ar  
    32    20    21 ar  
    33    20    31 1   
    34    21    32 1   
@<TRIPOS>SUBSTRUCTURE
     1 9DE         1 TEMP              0 ****  ****    0 ROOT
