@<TRIPOS>MOLECULE
9DG
   18    19     1     0     0
SMALL
bcc


@<TRIPOS>ATOM
      1 C9           0.0000     0.0000     0.0000 cc         1 9DG      -0.069000
      2 C8           1.3490     0.0000     0.0000 cd         1 9DG      -0.287300
      3 N7           1.8030     0.0000     1.2820 na         1 9DG       0.547900
      4 C5           0.7200     0.0000     2.1350 cd         1 9DG      -0.381900
      5 C6           0.5790    -0.0010     3.5360 c          1 9DG       0.651100
      6 O6           1.5610    -0.0010     4.2610 o          1 9DG      -0.625500
      7 N1          -0.6660     0.0040     4.0580 ns         1 9DG       0.010600
      8 C2          -1.7570     0.0000     3.2410 cd         1 9DG      -0.063200
      9 N2          -3.0110    -0.0010     3.8020 nz         1 9DG       0.229400
     10 N3          -1.6440     0.0000     1.9340 nc         1 9DG      -0.302100
     11 C4          -0.4330     0.0000     1.3440 cc         1 9DG      -0.000600
     12 H9          -0.6380    -0.0000    -0.8760 ha         1 9DG       0.151000
     13 H8           1.9740    -0.0000    -0.8850 h4         1 9DG       0.174000
     14 HN7          2.7640     0.0000     1.5600 hn         1 9DG       0.138700
     15 HN1         -0.7890     0.0110     5.0510 hn         1 9DG       0.187500
     16 HN21        -3.1270     0.8200     4.3620 hn         1 9DG       0.213467
     17 HN22        -3.1200    -0.8140     4.3750 hn         1 9DG       0.213467
     18 H23         -3.7010    -0.0100     3.0760 hn         1 9DG       0.213467
@<TRIPOS>BOND
     1     1     2 2   
     2     1    11 1   
     3     1    12 1   
     4     2     3 1   
     5     2    13 1   
     6     3     4 1   
     7     3    14 1   
     8     4     5 1   
     9     4    11 2   
    10     5     6 2   
    11     5     7 1   
    12     7     8 1   
    13     7    15 1   
    14     8     9 1   
    15     8    10 2   
    16     9    16 1   
    17     9    17 1   
    18     9    18 1   
    19    10    11 1   
@<TRIPOS>SUBSTRUCTURE
     1 9DG         1 TEMP              0 ****  ****    0 ROOT
