@<TRIPOS>MOLECULE
molecule
   40    41     1     0     0
SMALL
bcc


@<TRIPOS>ATOM
      1 CAH          0.0000     0.0000     0.0000 ca         1 9DH      -0.158000
      2 CAI          1.3820     0.0000     0.0000 ca         1 9DH      -0.008000
      3 CAJ          2.0740     0.0000     1.1980 ca         1 9DH      -0.369500
      4 SAM          3.8360     0.0000     1.1950 sy         1 9DH       1.226200
      5 OAN          4.2400    -0.5440     2.4440 o          1 9DH      -0.523300
      6 OAO          4.2340    -0.5450    -0.0560 o          1 9DH      -0.523300
      7 NAP          4.3260     1.5820     1.1920 nz         1 9DH      -0.805500
      8 CAK          1.3860     0.0020     2.3970 ca         1 9DH      -0.008000
      9 CAL          0.0050     0.0030     2.4030 ca         1 9DH      -0.158000
     10 CAG         -0.6930     0.0060     1.2030 ca         1 9DH       0.168600
     11 NAF         -2.0930     0.0070     1.2050 ns         1 9DH      -0.484100
     12 C           -2.7640     0.6500     2.1810 c          1 9DH       0.625100
     13 O           -2.1600     1.3080     3.0020 o          1 9DH      -0.558100
     14 CA          -4.2660     0.5520     2.2520 c3         1 9DH       0.173800
     15 N           -4.7540     1.3330     3.3920 nh         1 9DH      -0.721000
     16 CAA         -4.8950     0.7010     4.7060 c3         1 9DH       0.233100
     17 CAQ         -5.0830     2.6800     3.2260 ca         1 9DH       0.199600
     18 CAR         -4.9550     3.2790     1.9800 ca         1 9DH      -0.199500
     19 CAS         -5.2820     4.6120     1.8180 ca         1 9DH      -0.081500
     20 CAT         -5.7360     5.3490     2.8970 ca         1 9DH      -0.171000
     21 CAU         -5.8640     4.7550     4.1390 ca         1 9DH      -0.081500
     22 CAV         -5.5450     3.4220     4.3050 ca         1 9DH      -0.199500
     23 H1          -0.5420     0.0010    -0.9380 ha         1 9DH       0.177500
     24 H2           1.9230    -0.0050    -0.9380 ha         1 9DH       0.157000
     25 H3           3.9700     2.0400     0.3770 hn         1 9DH       0.491133
     26 H4           3.9780     2.0400     2.0110 hn         1 9DH       0.491133
     27 H5           1.9310     0.0010     3.3340 ha         1 9DH       0.157000
     28 H6          -0.5330     0.0060     3.3440 ha         1 9DH       0.177500
     29 H7          -2.5940    -0.4930     0.4990 hn         1 9DH       0.343500
     30 H8          -4.5550    -0.4850     2.3740 h1         1 9DH       0.079700
     31 H9          -4.6970     0.9410     1.3370 h1         1 9DH       0.079700
     32 H10         -5.9340     0.7320     5.0120 h1         1 9DH       0.041700
     33 H11         -4.2890     1.2320     5.4290 h1         1 9DH       0.041700
     34 H12         -4.5670    -0.3300     4.6480 h1         1 9DH       0.041700
     35 H13         -4.6000     2.7020     1.1350 ha         1 9DH       0.125000
     36 H14         -5.1820     5.0800     0.8460 ha         1 9DH       0.133000
     37 H15         -5.9890     6.3950     2.7690 ha         1 9DH       0.135000
     38 H16         -6.2220     5.3350     4.9810 ha         1 9DH       0.133000
     39 H17         -5.6460     2.9570     5.2790 ha         1 9DH       0.125000
     40 HAP3         5.3260     1.6210     1.1770 hn         1 9DH       0.491133
@<TRIPOS>BOND
     1    16    15 1
     2    14    15 1
     3    14    12 1
     4    15    17 1
     5    13    12 2
     6    12    11 1
     7    18    17 ar
     8    18    19 ar
     9    17    22 ar
    10    11    10 1
    11    19    20 ar
    12    22    21 ar
    13    10     1 ar
    14    10     9 ar
    15     1     2 ar
    16     9     8 ar
    17    20    21 ar
    18     2     3 ar
    19     8     3 ar
    20     3     4 1
    21     7     4 1
    22     6     4 2
    23     4     5 2
    24     1    23 1
    25     2    24 1
    26     7    25 1
    27     7    26 1
    28     8    27 1
    29     9    28 1
    30    11    29 1
    31    14    30 1
    32    14    31 1
    33    16    32 1
    34    16    33 1
    35    16    34 1
    36    18    35 1
    37    19    36 1
    38    20    37 1
    39    21    38 1
    40    22    39 1
    41    40     7 1
@<TRIPOS>SUBSTRUCTURE
     1 9DH         1 TEMP              0 ****  ****    0 ROOT
