@<TRIPOS>MOLECULE
9DH
   40    41     1     0     0
SMALL
bcc


@<TRIPOS>ATOM
      1 CAH          0.0000     0.0000     0.0000 ca         1 9DH      -0.139500
      2 CAI          1.3820     0.0000     0.0000 ca         1 9DH       0.036000
      3 CAJ          2.0740     0.0000     1.1980 ca         1 9DH      -0.255500
      4 SAM          3.8360     0.0000     1.1950 sy         1 9DH       0.934200
      5 OAN          4.2400    -0.5440     2.4440 o          1 9DH      -0.499300
      6 OAO          4.2340    -0.5450    -0.0560 o          1 9DH      -0.499300
      7 NAP          4.3260     1.5820     1.1920 nz         1 9DH      -0.131500
      8 CAK          1.3860     0.0020     2.3970 ca         1 9DH       0.036000
      9 CAL          0.0050     0.0030     2.4030 ca         1 9DH      -0.139500
     10 CAG         -0.6930     0.0060     1.2030 ca         1 9DH       0.026600
     11 NAF         -2.0930     0.0070     1.2050 ns         1 9DH      -0.044100
     12 C           -2.7640     0.6500     2.1810 c          1 9DH       0.535100
     13 O           -2.1600     1.3080     3.0020 o          1 9DH      -0.599100
     14 CA          -4.2660     0.5520     2.2520 c3         1 9DH       0.109800
     15 N           -4.7540     1.3330     3.3920 nh         1 9DH      -0.367000
     16 CAA         -4.8950     0.7010     4.7060 c3         1 9DH       0.213100
     17 CAQ         -5.0830     2.6800     3.2260 ca         1 9DH       0.074600
     18 CAR         -4.9550     3.2790     1.9800 ca         1 9DH      -0.185000
     19 CAS         -5.2820     4.6120     1.8180 ca         1 9DH      -0.048000
     20 CAT         -5.7360     5.3490     2.8970 ca         1 9DH      -0.148000
     21 CAU         -5.8640     4.7550     4.1390 ca         1 9DH      -0.048000
     22 CAV         -5.5450     3.4220     4.3050 ca         1 9DH      -0.185000
     23 H1          -0.5420     0.0010    -0.9380 ha         1 9DH       0.148000
     24 H2           1.9230    -0.0050    -0.9380 ha         1 9DH       0.125000
     25 H3           3.9700     2.0400     0.3770 hn         1 9DH       0.312800
     26 H4           3.9780     2.0400     2.0110 hn         1 9DH       0.312800
     27 H5           1.9310     0.0010     3.3340 ha         1 9DH       0.125000
     28 H6          -0.5330     0.0060     3.3440 ha         1 9DH       0.148000
     29 H7          -2.5940    -0.4930     0.4990 hn         1 9DH       0.187500
     30 H8          -4.5550    -0.4850     2.3740 h1         1 9DH       0.047200
     31 H9          -4.6970     0.9410     1.3370 h1         1 9DH       0.047200
     32 H10         -5.9340     0.7320     5.0120 h1         1 9DH       0.009367
     33 H11         -4.2890     1.2320     5.4290 h1         1 9DH       0.009367
     34 H12         -4.5670    -0.3300     4.6480 h1         1 9DH       0.009367
     35 H13         -4.6000     2.7020     1.1350 ha         1 9DH       0.107500
     36 H14         -5.1820     5.0800     0.8460 ha         1 9DH       0.101000
     37 H15         -5.9890     6.3950     2.7690 ha         1 9DH       0.108000
     38 H16         -6.2220     5.3350     4.9810 ha         1 9DH       0.101000
     39 H17         -5.6460     2.9570     5.2790 ha         1 9DH       0.107500
     40 HAP3         5.3260     1.6210     1.1770 hn         1 9DH       0.312800
@<TRIPOS>BOND
     1     1     2 ar  
     2     1    10 ar  
     3     1    23 1   
     4     2     3 ar  
     5     2    24 1   
     6     3     4 1   
     7     3     8 ar  
     8     4     5 2   
     9     4     6 2   
    10     4     7 1   
    11     7    25 1   
    12     7    26 1   
    13     7    40 1   
    14     8     9 ar  
    15     8    27 1   
    16     9    10 ar  
    17     9    28 1   
    18    10    11 1   
    19    11    12 1   
    20    11    29 1   
    21    12    13 2   
    22    12    14 1   
    23    14    15 1   
    24    14    30 1   
    25    14    31 1   
    26    15    16 1   
    27    15    17 1   
    28    16    32 1   
    29    16    33 1   
    30    16    34 1   
    31    17    18 ar  
    32    17    22 ar  
    33    18    19 ar  
    34    18    35 1   
    35    19    20 ar  
    36    19    36 1   
    37    20    21 ar  
    38    20    37 1   
    39    21    22 ar  
    40    21    38 1   
    41    22    39 1   
@<TRIPOS>SUBSTRUCTURE
     1 9DH         1 TEMP              0 ****  ****    0 ROOT
