@<TRIPOS>MOLECULE
9DI
   32    34     1     0     0
SMALL
bcc


@<TRIPOS>ATOM
      1 C9           0.0000     0.0000     0.0000 cc         1 9DI      -0.156300
      2 C4           1.4110     0.0000     0.0000 cc         1 9DI       0.099400
      3 N3           2.3510     0.0000     0.9750 nc         1 9DI      -0.482100
      4 C2           3.6190    -0.0060     0.6830 cd         1 9DI       0.283800
      5 N1           4.0640    -0.0190    -0.5990 ns         1 9DI       0.007600
      6 C6           3.1910    -0.0260    -1.6290 c          1 9DI       0.646100
      7 O6           3.5870    -0.0370    -2.7830 o          1 9DI      -0.708500
      8 C5           1.8120    -0.0190    -1.3390 cd         1 9DI      -0.444900
      9 N7           0.6710    -0.0220    -2.1070 na         1 9DI       0.478900
     10 C8          -0.4130    -0.0110    -1.2840 cd         1 9DI      -0.280300
     11 C5'         -4.5370    -0.1770     1.0580 c3         1 9DI       0.224400
     12 O5'         -4.8620    -1.5670     1.1260 oh         1 9DI      -0.577800
     13 C4'         -3.1570     0.0530     1.6770 c3         1 9DI       0.157100
     14 O4'         -2.1370    -0.6300     0.9180 os         1 9DI      -0.386600
     15 C1'         -0.8880     0.0130     1.2170 c3         1 9DI       0.251400
     16 C2'         -1.2060     1.4660     1.6190 c3         1 9DI       0.135100
     17 O2'         -0.7360     1.7330     2.9430 oh         1 9DI      -0.551800
     18 C3'         -2.7530     1.5450     1.5680 c3         1 9DI       0.134100
     19 O3'         -3.2620     2.2980     2.6710 oh         1 9DI      -0.552800
     20 H2           4.3430    -0.0010     1.4890 h5         1 9DI       0.007800
     21 HN1          5.0480    -0.0230    -0.7830 hn         1 9DI       0.181500
     22 HN7          0.6430    -0.0320    -3.1080 hn         1 9DI       0.119700
     23 H8          -1.4460    -0.0110    -1.6090 h4         1 9DI       0.157000
     24 H5'1        -4.5570     0.1490     0.0250 h1         1 9DI      -0.011300
     25 H5'2        -5.2600     0.3920     1.6310 h1         1 9DI      -0.011300
     26 HO5'        -5.7370    -1.7010     0.8020 ho         1 9DI       0.385000
     27 H1'         -0.4010    -0.4960     2.0390 h1         1 9DI       0.053700
     28 H2'         -0.7700     2.1580     0.9090 h1         1 9DI       0.012700
     29 HO2'        -0.1920     2.5020     2.9340 ho         1 9DI       0.387000
     30 H3'         -3.0830     1.9620     0.6250 h1         1 9DI       0.009700
     31 HO3'        -3.6150     3.1150     2.3590 ho         1 9DI       0.382000
     32 H4'         -3.1380    -0.2690     2.7110 h1         1 9DI       0.050700
@<TRIPOS>BOND
     1     1     2 1   
     2     1    10 2   
     3     1    15 1   
     4     2     3 1   
     5     2     8 2   
     6     3     4 2   
     7     4     5 1   
     8     4    20 1   
     9     5     6 1   
    10     5    21 1   
    11     6     7 2   
    12     6     8 1   
    13     8     9 1   
    14     9    10 1   
    15     9    22 1   
    16    10    23 1   
    17    11    12 1   
    18    11    13 1   
    19    11    24 1   
    20    11    25 1   
    21    12    26 1   
    22    13    14 1   
    23    13    18 1   
    24    13    32 1   
    25    14    15 1   
    26    15    16 1   
    27    15    27 1   
    28    16    17 1   
    29    16    18 1   
    30    16    28 1   
    31    17    29 1   
    32    18    19 1   
    33    18    30 1   
    34    19    31 1   
@<TRIPOS>SUBSTRUCTURE
     1 9DI         1 TEMP              0 ****  ****    0 ROOT
