@<TRIPOS>MOLECULE
molecule
   53    56     1     0     0
SMALL
bcc


@<TRIPOS>ATOM
      1 C5           0.0000     0.0000     0.0000 ca         1 9DJ       0.306200
      2 C6           1.3790     0.0000     0.0000 ca         1 9DJ      -0.169300
      3 C7           3.5350     0.0010     1.2720 c          1 9DJ       0.900200
      4 C13          2.8150    -1.5090     6.0080 c3         1 9DJ      -0.077400
      5 C15          2.5540    -1.9900     8.4290 c3         1 9DJ      -0.037100
      6 C17          1.2130    -0.1400     7.3410 ca         1 9DJ      -0.106300
      7 C20         -0.6160     0.8890     8.5150 ca         1 9DJ      -0.202000
      8 C21          0.1740     0.7810     7.3910 ca         1 9DJ      -0.090000
      9 C24         -0.9530    -0.6980    11.8290 ca         1 9DJ       0.158600
     10 C26         -1.2900    -2.8330    12.8690 ca         1 9DJ      -0.128500
     11 C28         -0.0060    -1.1460    13.9870 ca         1 9DJ      -0.128500
     12 O9           4.1080    -0.1220     2.3360 o          1 9DJ      -0.839800
     13 O8           4.2470     0.1380     0.1360 o          1 9DJ      -0.839800
     14 C1           2.0600     0.0000     1.2240 ca         1 9DJ      -0.162600
     15 N4          -0.6820     0.0050     1.1300 nb         1 9DJ      -0.685000
     16 C3          -0.0910     0.0120     2.3050 ca         1 9DJ       0.289200
     17 C2           1.2970     0.0010     2.4050 ca         1 9DJ       0.108300
     18 N10          1.9170     0.0070     3.6470 nu         1 9DJ      -0.816600
     19 C11          1.1120    -0.0900     4.8680 c3         1 9DJ       0.235800
     20 C12          2.0380    -0.1960     6.0810 c3         1 9DJ      -0.031400
     21 C19         -0.3700     0.0690     9.6090 ca         1 9DJ       0.189600
     22 C18          0.6650    -0.8510     9.5580 ca         1 9DJ      -0.202000
     23 C16          1.4560    -0.9580     8.4220 ca         1 9DJ      -0.032300
     24 C14          3.5720    -1.6980     7.3280 c3         1 9DJ      -0.085400
     25 N22         -1.1630     0.1710    10.7560 nh         1 9DJ      -0.629400
     26 C23         -2.2120     1.1900    10.8320 c3         1 9DJ       0.239100
     27 C29         -0.2060    -0.2850    12.9250 ca         1 9DJ      -0.131500
     28 C27         -0.5410    -2.4210    13.9550 ca         1 9DJ      -0.136000
     29 C25         -1.4980    -1.9770    11.8060 ca         1 9DJ      -0.131500
     30 H1          -0.5330    -0.0030    -0.9430 h4         1 9DJ      -0.006900
     31 H2           1.9280    -0.0040    -0.9340 ha         1 9DJ       0.153000
     32 H3           2.1160    -2.3270     5.8820 hc         1 9DJ       0.064200
     33 H4           3.5310    -1.4500     5.1970 hc         1 9DJ       0.064200
     34 H5           2.1150    -2.9630     8.2440 hc         1 9DJ       0.046700
     35 H6           3.0600    -1.9490     9.3860 hc         1 9DJ       0.046700
     36 H7          -1.4230     1.6110     8.5460 ha         1 9DJ       0.125000
     37 H8          -0.0170     1.4210     6.5380 ha         1 9DJ       0.140000
     38 H9          -1.7110    -3.8310    12.8500 ha         1 9DJ       0.128000
     39 H10          0.5780    -0.8250    14.8410 ha         1 9DJ       0.128000
     40 H12         -0.6930     0.0140     3.2060 h4         1 9DJ      -0.002900
     41 H13          2.9080     0.1280     3.7100 hn         1 9DJ       0.493800
     42 H14          0.4830    -0.9710     4.8160 h1         1 9DJ       0.027700
     43 H15          0.4910     0.7920     4.9630 h1         1 9DJ       0.027700
     44 H16          2.7370     0.6310     6.0770 hc         1 9DJ       0.067700
     45 H17          0.8590    -1.4920    10.4100 ha         1 9DJ       0.133000
     46 H18          4.2410    -2.5450     7.2330 hc         1 9DJ       0.044200
     47 H19          4.0970    -0.7820     7.5670 hc         1 9DJ       0.044200
     48 H20         -2.7030     1.1320    11.7960 h1         1 9DJ       0.034033
     49 H21         -2.9380     1.0210    10.0470 h1         1 9DJ       0.034033
     50 H22         -1.7700     2.1720    10.7110 h1         1 9DJ       0.034033
     51 H23          0.2130     0.7140    12.9500 ha         1 9DJ       0.141000
     52 H24         -0.3810    -3.0940    14.7890 ha         1 9DJ       0.125000
     53 H25         -2.0850    -2.3010    10.9560 ha         1 9DJ       0.141000
@<TRIPOS>BOND
     1    11    28 ar
     2    11    27 ar
     3    28    10 ar
     4    27     9 ar
     5    10    29 ar
     6     9    29 ar
     7     9    25 1
     8     7     8 ar
     9     7    21 ar
    10     8     6 ar
    11    25    21 1
    12    25    26 1
    13    21    22 ar
    14     6    20 1
    15     6    23 ar
    16    20    19 1
    17    20     4 1
    18    22    23 ar
    19    23     5 1
    20    19    18 1
    21    18    17 1
    22     4    24 1
    23    24     5 1
    24    16    17 ar
    25    16    15 ar
    26    17    14 ar
    27    12     3 1
    28    15     1 ar
    29    14     3 1
    30    14     2 ar
    31     3    13 1
    32     1     2 ar
    33     1    30 1
    34     2    31 1
    35     4    32 1
    36     4    33 1
    37     5    34 1
    38     5    35 1
    39     7    36 1
    40     8    37 1
    41    10    38 1
    42    11    39 1
    43    16    40 1
    44    18    41 1
    45    19    42 1
    46    19    43 1
    47    20    44 1
    48    22    45 1
    49    24    46 1
    50    24    47 1
    51    26    48 1
    52    26    49 1
    53    26    50 1
    54    27    51 1
    55    28    52 1
    56    29    53 1
@<TRIPOS>SUBSTRUCTURE
     1 9DJ         1 TEMP              0 ****  ****    0 ROOT
