@<TRIPOS>MOLECULE
9DK
   30    30     1     0     0
SMALL
bcc


@<TRIPOS>ATOM
      1 C67          0.0000     0.0000     0.0000 c          1 9DK       0.980600
      2 C69          1.5070     0.0000     0.0000 c3         1 9DK      -0.237000
      3 C70          2.0170     0.0000     1.4430 c3         1 9DK       0.022900
      4 C71          2.0170    -1.2490    -0.7210 c3         1 9DK       0.022900
      5 C72          2.0090     1.2300    -0.7100 c          1 9DK       0.577100
      6 C75          3.8240     2.6400    -1.5230 c3         1 9DK       0.057000
      7 C76          5.3530     2.6400    -1.5230 c3         1 9DK      -0.042700
      8 C77          5.8560     3.8700    -2.2330 cc         1 9DK       0.314600
      9 C78          6.7130     4.7800    -1.7310 cd         1 9DK      -0.453600
     10 C80          6.1490     5.3620    -3.7640 cd         1 9DK       0.198400
     11 N74          3.3350     1.4440    -0.8330 ns         1 9DK      -0.265900
     12 N79          6.8990     5.7270    -2.7010 na         1 9DK       0.236100
     13 N81          5.5320     4.2490    -3.4790 nc         1 9DK      -0.596000
     14 O68         -0.6040     0.9050    -0.5280 o          1 9DK      -0.872800
     15 O73          1.2210     2.0290    -1.1710 o          1 9DK      -0.574100
     16 H2           1.8770     0.9840     1.8750 hc         1 9DK      -0.003967
     17 H3           3.0700    -0.2530     1.4540 hc         1 9DK      -0.003967
     18 H4           1.4640    -0.7300     2.0210 hc         1 9DK      -0.003967
     19 H5           1.8770    -1.1320    -1.7890 hc         1 9DK      -0.003967
     20 H6           1.4640    -2.1150    -0.3770 hc         1 9DK      -0.003967
     21 H7           3.0700    -1.3850    -0.5070 hc         1 9DK      -0.003967
     22 H8           3.4630     3.5250    -1.0120 h1         1 9DK       0.026200
     23 H9           3.4630     2.6410    -2.5450 h1         1 9DK       0.026200
     24 H10          5.7140     2.6400    -0.5020 hc         1 9DK       0.013200
     25 H11          5.7140     1.7560    -2.0340 hc         1 9DK       0.013200
     26 H12          7.1680     4.7650    -0.7480 h4         1 9DK       0.151000
     27 H13          6.0760     5.9030    -4.7000 h5         1 9DK       0.017100
     28 H14          3.9850     0.7850    -0.4530 hn         1 9DK       0.168500
     29 H15          7.4810     6.5380    -2.6360 hn         1 9DK       0.112700
     30 O1          -0.6710    -1.0070     0.5810 o          1 9DK      -0.872800
@<TRIPOS>BOND
     1     1     2 1   
     2     1    14 1   
     3     1    30 1   
     4     2     3 1   
     5     2     4 1   
     6     2     5 1   
     7     3    16 1   
     8     3    17 1   
     9     3    18 1   
    10     4    19 1   
    11     4    20 1   
    12     4    21 1   
    13     5    11 1   
    14     5    15 2   
    15     6     7 1   
    16     6    11 1   
    17     6    22 1   
    18     6    23 1   
    19     7     8 1   
    20     7    24 1   
    21     7    25 1   
    22     8     9 2   
    23     8    13 1   
    24     9    12 1   
    25     9    26 1   
    26    10    12 1   
    27    10    13 2   
    28    10    27 1   
    29    11    28 1   
    30    12    29 1   
@<TRIPOS>SUBSTRUCTURE
     1 9DK         1 TEMP              0 ****  ****    0 ROOT
