@<TRIPOS>MOLECULE
9DP
   58    61     1     0     0
SMALL
bcc


@<TRIPOS>ATOM
      1 C1          0.4870    1.1190   -0.2850 ca        1 9DP      0.042400
      2 N1          3.7150    0.1560    1.2970 n         1 9DP     -0.470100
      3 O1          3.4910   -1.2100    3.1680 o         1 9DP     -0.601100
      4 CL1        -0.1450    1.5160   -1.8130 cl        1 9DP     -0.078400
      5 C2          1.8340    0.7630   -0.1390 ca        1 9DP     -0.039600
      6 N2          5.5590   -1.1790    2.0950 n         1 9DP     -0.415100
      7 O2         12.5120    4.2930    3.1740 o         1 9DP     -0.831800
      8 CL2         2.8510    0.7240   -1.5040 cl        1 9DP     -0.077400
      9 C3         -0.3660    1.1500    0.8200 ca        1 9DP     -0.147000
     10 N3          8.0310   -2.1050    4.5670 nc        1 9DP     -0.476800
     11 O3         12.9440    4.8280    1.0390 o         1 9DP     -0.831800
     12 C4          0.1360    0.8290    2.0780 ca        1 9DP     -0.100000
     13 N4          7.6250   -1.4430    3.4750 na        1 9DP      0.148300
     14 C5          1.4710    0.4840    2.2510 ca        1 9DP     -0.133000
     15 N5         11.9840    2.2090    0.3790 n3        1 9DP     -0.805200
     16 C6          2.3510    0.4430    1.1470 ca        1 9DP      0.096600
     17 C7          4.2140   -0.7580    2.2550 c         1 9DP      0.770100
     18 C8          6.2450   -1.6960    3.2020 cc        1 9DP     -0.001700
     19 C9          5.7850   -2.5270    4.2430 cd        1 9DP     -0.275300
     20 C10         6.9460   -2.7520    5.0790 cd        1 9DP      0.306600
     21 C11         6.9350   -3.5780    6.3270 c3        1 9DP     -0.071300
     22 C12         8.3110   -3.6480    6.9760 c3        1 9DP     -0.083767
     23 C13         5.9510   -2.9590    7.3150 c3        1 9DP     -0.083767
     24 C14         6.4790   -4.9910    5.9770 c3        1 9DP     -0.083767
     25 C15         8.5720   -1.1840    1.2200 ca        1 9DP     -0.174000
     26 C16         8.5050   -0.7750    2.5670 ca        1 9DP     -0.022200
     27 C17         9.2900    0.3020    3.0130 ca        1 9DP     -0.116000
     28 C18         9.3940   -0.4910    0.3380 ca        1 9DP     -0.134000
     29 C19        10.1600    0.5950    0.7680 ca        1 9DP     -0.061300
     30 C20        10.1140    0.9920    2.1170 ca        1 9DP     -0.026300
     31 C21        11.0140    1.3260   -0.2310 c3        1 9DP      0.212100
     32 C22        11.4010    3.0190    1.4390 c3        1 9DP      0.037500
     33 C23        10.9370    2.1360    2.5980 c3        1 9DP     -0.030100
     34 C24        12.3860    4.1340    1.9320 c         1 9DP      0.929600
     35 HN1         4.2870    0.3710    0.5070 hn        1 9DP      0.326500
     36 HN2         6.1320   -0.6740    1.4460 hn        1 9DP      0.320500
     37 H3         -1.4230    1.4260    0.6950 ha        1 9DP      0.148000
     38 H4         -0.5320    0.8520    2.9530 ha        1 9DP      0.142000
     39 H5          1.8420    0.2330    3.2600 ha        1 9DP      0.180000
     40 HN5        12.4190    2.8070   -0.3000 hn        1 9DP      0.389800
     41 H9          4.7740   -2.8880    4.3930 ha        1 9DP      0.182000
     42 H12         9.0520   -4.1030    6.2760 hc        1 9DP      0.036811
     43 H12A        8.2600   -4.2740    7.8990 hc        1 9DP      0.036811
     44 H12B        8.6650   -2.6270    7.2560 hc        1 9DP      0.036811
     45 H13         5.8920   -3.5860    8.2370 hc        1 9DP      0.036811
     46 H13A        4.9340   -2.8910    6.8590 hc        1 9DP      0.036811
     47 H13B        6.2840   -1.9320    7.6000 hc        1 9DP      0.036811
     48 H14         5.4720   -4.9650    5.4950 hc        1 9DP      0.036811
     49 H14A        7.2010   -5.4660    5.2710 hc        1 9DP      0.036811
     50 H14B        6.4200   -5.6110    6.9030 hc        1 9DP      0.036811
     51 H15         8.0020   -2.0550    0.8660 ha        1 9DP      0.133000
     52 H17         9.2700    0.6120    4.0700 ha        1 9DP      0.155000
     53 H18         9.4490   -0.8110   -0.7140 ha        1 9DP      0.127000
     54 H21        10.3050    1.8610   -0.9370 h1        1 9DP      0.020700
     55 H21A       11.5840    0.5710   -0.8460 h1        1 9DP      0.020700
     56 H22        10.4910    3.5790    1.0560 h1        1 9DP     -0.000300
     57 H23        10.3610    2.7710    3.3190 hc        1 9DP      0.076200
     58 H23A       11.8370    1.7480    3.1490 hc        1 9DP      0.076200
@<TRIPOS>BOND
     1    1    4 1   
     2    1    5 ar  
     3    1    9 ar  
     4    2   16 1   
     5    2   17 1   
     6    2   35 1   
     7    3   17 2   
     8    5    8 1   
     9    5   16 ar  
    10    6   17 1   
    11    6   18 1   
    12    6   36 1   
    13    7   34 1   
    14    9   12 ar  
    15    9   37 1   
    16   10   13 1   
    17   10   20 2   
    18   11   34 1   
    19   12   14 ar  
    20   12   38 1   
    21   13   18 1   
    22   13   26 1   
    23   14   16 ar  
    24   14   39 1   
    25   15   31 1   
    26   15   32 1   
    27   15   40 1   
    28   18   19 2   
    29   19   20 1   
    30   19   41 1   
    31   20   21 1   
    32   21   22 1   
    33   21   23 1   
    34   21   24 1   
    35   22   42 1   
    36   22   43 1   
    37   22   44 1   
    38   23   45 1   
    39   23   46 1   
    40   23   47 1   
    41   24   48 1   
    42   24   49 1   
    43   24   50 1   
    44   25   26 ar  
    45   25   28 ar  
    46   25   51 1   
    47   26   27 ar  
    48   27   30 ar  
    49   27   52 1   
    50   28   29 ar  
    51   28   53 1   
    52   29   30 ar  
    53   29   31 1   
    54   30   33 1   
    55   31   54 1   
    56   31   55 1   
    57   32   33 1   
    58   32   34 1   
    59   32   56 1   
    60   33   57 1   
    61   33   58 1   
@<TRIPOS>SUBSTRUCTURE
     1 9DP         1 TEMP              0 ****  ****    0 ROOT
