@<TRIPOS>MOLECULE
molecule
   58    61     1     0     0
SMALL
bcc


@<TRIPOS>ATOM
      1 C1           0.0000     0.0000     0.0000 ca         1 9DP       0.046400
      2 N1           3.4750    -0.0050     1.2100 ns         1 9DP      -0.489100
      3 O1           3.5330    -1.2060     3.0780 o          1 9DP      -0.634100
      4 Cl1         -0.8660    -0.0000    -1.5050 cl         1 9DP      -0.096400
      5 C2           1.3840     0.0000     0.0000 ca         1 9DP      -0.011600
      6 N2           5.4890    -0.7560     2.1230 ns         1 9DP      -0.451100
      7 O2          13.8770     4.2730     3.0070 o          1 9DP      -0.828300
      8 Cl2          2.2540     0.0020    -1.5020 cl         1 9DP      -0.093400
      9 C3          -0.6930     0.0040     1.1970 ca         1 9DP      -0.139000
     10 N3           7.8020    -2.3650     4.3440 nc         1 9DP      -0.531800
     11 O3          14.7440     2.8140     1.5920 o          1 9DP      -0.828300
     12 C4          -0.0050     0.0050     2.3970 ca         1 9DP      -0.105000
     13 N4           7.5290    -1.6090     3.1960 na         1 9DP       0.074300
     14 C5           1.3760    -0.0010     2.4040 ca         1 9DP      -0.118000
     15 N5          12.5030     2.1800     0.3280 n7         1 9DP      -0.791200
     16 C6           2.0760     0.0000     1.2050 ca         1 9DP       0.099600
     17 C7           4.1440    -0.6740     2.1700 c          1 9DP       0.788100
     18 C8           6.1800    -1.4490     3.1170 cc         1 9DP       0.013300
     19 C9           5.6300    -2.0860     4.1860 cd         1 9DP      -0.359300
     20 C10          6.6690    -2.6490     4.9320 cd         1 9DP       0.353600
     21 C11          6.5100    -3.4470     6.2000 c3         1 9DP      -0.084300
     22 C12          7.8650    -3.5630     6.9020 c3         1 9DP      -0.078100
     23 C13          5.5150    -2.7440     7.1250 c3         1 9DP      -0.078100
     24 C14          5.9900    -4.8460     5.8610 c3         1 9DP      -0.078100
     25 C15          8.2200     0.0930     1.1080 ca         1 9DP      -0.206000
     26 C16          8.4980     0.0610     2.4680 ca         1 9DP       0.120800
     27 C17          9.6570     0.6530     2.9460 ca         1 9DP      -0.146000
     28 C18          9.0970     0.7150     0.2440 ca         1 9DP      -0.108000
     29 C19         10.2550     1.3080     0.7240 ca         1 9DP      -0.070300
     30 C20         10.5360     1.2750     2.0740 ca         1 9DP      -0.004300
     31 C21         11.1750     1.9830    -0.2610 c3         1 9DP       0.196100
     32 C22         12.3900     2.8690     1.6230 c3         1 9DP       0.055500
     33 C23         11.7860     1.8980     2.6390 c3         1 9DP      -0.018100
     34 C24         13.7570     3.3020     2.0880 c          1 9DP       0.889600
     35 HN1          3.9800     0.5110     0.5160 hn         1 9DP       0.330500
     36 HN2          5.9940    -0.2820     1.4010 hn         1 9DP       0.329500
     37 H3          -1.7760     0.0090     1.1950 ha         1 9DP       0.145000
     38 H4          -0.5510     0.0060     3.3330 ha         1 9DP       0.142000
     39 H5           1.9130    -0.0010     3.3450 ha         1 9DP       0.183000
     40 HN5         13.0650     2.7270    -0.2930 hn         1 9DP       0.374800
     41 H9           4.5730    -2.1470     4.4170 ha         1 9DP       0.182000
     42 H12          8.2540    -2.5720     7.1020 hc         1 9DP       0.036033
     43 H12A         8.5570    -4.1010     6.2660 hc         1 9DP       0.036033
     44 H12B         7.7430    -4.0980     7.8370 hc         1 9DP       0.036033
     45 H13          4.5140    -2.8430     6.7210 hc         1 9DP       0.036033
     46 H13A         5.5540    -3.1960     8.1090 hc         1 9DP       0.036033
     47 H13B         5.7710    -1.6940     7.2000 hc         1 9DP       0.036033
     48 H14          4.9960    -4.7690     5.4390 hc         1 9DP       0.036033
     49 H14A         6.6530    -5.3120     5.1420 hc         1 9DP       0.036033
     50 H14B         5.9550    -5.4460     6.7620 hc         1 9DP       0.036033
     51 H15          7.6950    -0.7340     0.6430 ha         1 9DP       0.152000
     52 H17         10.1620     0.2320     3.8080 ha         1 9DP       0.171000
     53 H18          8.8800     0.7390    -0.8170 ha         1 9DP       0.137000
     54 H21         11.2650     1.3640    -1.1450 h1         1 9DP       0.031700
     55 H21A        10.7600     2.9460    -0.5340 h1         1 9DP       0.031700
     56 H22         11.7440     3.7330     1.5200 h1         1 9DP       0.022700
     57 H23         12.5060     1.1180     2.8600 hc         1 9DP       0.076700
     58 H23A        11.5400     2.4350     3.5460 hc         1 9DP       0.076700
@<TRIPOS>BOND
     1     9     1 ar
     2     1     4 1
     3     1     5 ar
     4    16     2 1
     5     2    17 1
     6     2    35 1
     7    17     3 2
     8    16     5 ar
     9     5     8 1
    10    17     6 1
    11     6    18 1
    12     6    36 1
    13     7    34 1
    14    12     9 ar
    15     9    37 1
    16    13    10 1
    17    10    20 2
    18    11    34 1
    19    12    14 ar
    20    12    38 1
    21    26    13 1
    22    18    13 1
    23    14    16 ar
    24    14    39 1
    25    32    15 1
    26    15    31 1
    27    15    40 1
    28    18    19 2
    29    19    20 1
    30    19    41 1
    31    20    21 1
    32    23    21 1
    33    21    24 1
    34    21    22 1
    35    22    42 1
    36    22    43 1
    37    22    44 1
    38    23    45 1
    39    23    46 1
    40    23    47 1
    41    24    48 1
    42    24    49 1
    43    24    50 1
    44    28    25 ar
    45    26    25 ar
    46    25    51 1
    47    27    26 ar
    48    30    27 ar
    49    27    52 1
    50    29    28 ar
    51    28    53 1
    52    30    29 ar
    53    31    29 1
    54    33    30 1
    55    31    54 1
    56    31    55 1
    57    34    32 1
    58    32    33 1
    59    32    56 1
    60    33    57 1
    61    33    58 1
@<TRIPOS>SUBSTRUCTURE
     1 9DP         1 TEMP              0 ****  ****    0 ROOT
