@<TRIPOS>MOLECULE
molecule
   18    18     1     0     0
SMALL
bcc


@<TRIPOS>ATOM
      1 C57          0.0000     0.0000     0.0000 c          1 9DQ       0.862600
      2 C59          1.5080     0.0000     0.0000 c3         1 9DQ       0.046500
      3 C60          2.0180     0.0000     1.4430 c3         1 9DQ      -0.291700
      4 C61          3.5190    -0.1230     1.4440 cc         1 9DQ       0.328800
      5 N62          4.3930     0.7060     2.0440 na         1 9DQ      -0.116400
      6 N63          5.5760     0.2480     1.8070 nc         1 9DQ      -0.213800
      7 N64          5.4720    -0.8190     1.0940 nd         1 9DQ      -0.019000
      8 N65          4.2280    -1.0630     0.8680 nd         1 9DQ      -0.402000
      9 N66          1.9960     1.2000    -0.6930 nz         1 9DQ      -0.800600
     10 O58         -0.6700    -1.1460     0.2020 o          1 9DQ      -0.757800
     11 H2           1.8690    -0.8840    -0.5110 hx         1 9DQ       0.107700
     12 H3           2.1370    -0.8800     0.8220 hc         1 9DQ       0.166700
     13 H4           1.4260    -0.3760     2.2690 hc         1 9DQ       0.166700
     14 H5           4.1680     1.5250     2.5730 hn         1 9DQ       0.352700
     15 H6           2.9740     1.1000    -0.8820 hn         1 9DQ       0.442467
     16 H7           1.8490     2.0020    -0.1140 hn         1 9DQ       0.442467
     17 OXT         -0.6040     1.0290    -0.1870 o          1 9DQ      -0.757800
     18 H663         1.4990     1.3130    -1.5540 hn         1 9DQ       0.442467
@<TRIPOS>BOND
     1    10     1 1
     2     1     2 1
     3     2     3 1
     4     2     9 1
     5     3     4 1
     6     4     8 2
     7     4     5 1
     8     8     7 1
     9     5     6 1
    10     7     6 2
    11     2    11 1
    12     3    12 1
    13     3    13 1
    14     5    14 1
    15     9    15 1
    16     9    16 1
    17     1    17 1
    18    18     9 1
@<TRIPOS>SUBSTRUCTURE
     1 9DQ         1 TEMP              0 ****  ****    0 ROOT
