@<TRIPOS>MOLECULE
9DQ
   18    18     1     0     0
SMALL
bcc


@<TRIPOS>ATOM
      1 C57          0.0000     0.0000     0.0000 c          1 9DQ       0.945600
      2 C59          1.5080     0.0000     0.0000 c3         1 9DQ      -0.107500
      3 C60          2.0180     0.0000     1.4430 c3         1 9DQ      -0.259700
      4 C61          3.5190    -0.1230     1.4440 cc         1 9DQ       0.129800
      5 N62          4.3930     0.7060     2.0440 na         1 9DQ       0.410600
      6 N63          5.5760     0.2480     1.8070 nc         1 9DQ      -0.382800
      7 N64          5.4720    -0.8190     1.0940 nd         1 9DQ      -0.005000
      8 N65          4.2280    -1.0630     0.8680 nd         1 9DQ      -0.363000
      9 N66          1.9960     1.2000    -0.6930 nz         1 9DQ       0.052400
     10 O58         -0.6700    -1.1460     0.2020 o          1 9DQ      -0.803300
     11 H2           1.8690    -0.8840    -0.5110 hx         1 9DQ       0.089700
     12 H3           2.1370    -0.8800     0.8220 hc         1 9DQ       0.138700
     13 H4           1.4260    -0.3760     2.2690 hc         1 9DQ       0.138700
     14 H5           4.1680     1.5250     2.5730 hn         1 9DQ       0.172700
     15 H6           2.9740     1.1000    -0.8820 hn         1 9DQ       0.216133
     16 H7           1.8490     2.0020    -0.1140 hn         1 9DQ       0.216133
     17 OXT         -0.6040     1.0290    -0.1870 o          1 9DQ      -0.803300
     18 H663         1.4990     1.3130    -1.5540 hn         1 9DQ       0.216133
@<TRIPOS>BOND
     1     1     2 1   
     2     1    10 1   
     3     1    17 1   
     4     2     3 1   
     5     2     9 1   
     6     2    11 1   
     7     3     4 1   
     8     3    12 1   
     9     3    13 1   
    10     4     5 1   
    11     4     8 2   
    12     5     6 1   
    13     5    14 1   
    14     6     7 2   
    15     7     8 1   
    16     9    15 1   
    17     9    16 1   
    18     9    18 1   
@<TRIPOS>SUBSTRUCTURE
     1 9DQ         1 TEMP              0 ****  ****    0 ROOT
