@<TRIPOS>MOLECULE
9DR
   48    51     1     0     0
SMALL
bcc


@<TRIPOS>ATOM
      1 N1           0.0000     0.0000     0.0000 n2         1 9DR      -0.213000
      2 C2           1.3250     0.0000     0.0000 c2         1 9DR       0.004000
      3 N3           2.0270     0.0000     1.1240 n2         1 9DR      -0.165000
      4 C4           1.4280    -0.0010     2.3040 c2         1 9DR       0.054000
      5 C5           0.0340     0.0000     2.3570 c2         1 9DR      -0.149000
      6 C6          -0.6790    -0.0010     1.1410 c2         1 9DR       0.089000
      7 CAA          2.5150     1.4410     4.0040 c3         1 9DR      -0.068000
      8 CAB         -5.1810    -4.5490     7.2210 c3         1 9DR       0.033000
      9 NAC          1.9960     0.0010    -1.2090 nv         1 9DR       0.093000
     10 NAD         -2.0620    -0.0000     1.1360 nv         1 9DR       0.013000
     11 CAE         -1.2050    -0.0140     4.6490 c1         1 9DR      -0.198000
     12 CAF         -0.6550    -0.0020     3.6120 c1         1 9DR      -0.069000
     13 CAG         -8.8400    -0.6420     7.3640 c2         1 9DR      -0.051000
     14 CAH         -7.1670     0.1510     8.8000 c2         1 9DR      -0.051000
     15 CAI         -7.8540    -1.0950     6.1770 c2         1 9DR      -0.177000
     16 CAJ         -6.2270    -0.1220     8.0200 c2         1 9DR      -0.177000
     17 CAK         -3.4560    -2.0820     5.9960 c2         1 9DR      -0.069000
     18 CAL         -4.5910     0.1720     5.5930 c2         1 9DR       0.010000
     19 CAM         -5.8500    -2.0260     5.5310 cx         1 9DR      -0.113000
     20 CAN          2.2400    -0.0010     3.5730 c3         1 9DR      -0.145000
     21 CAO         -1.8740    -0.1380     5.9980 c3         1 9DR       0.105000
     22 NAP         -8.4280    -0.0660     8.5560 n2         1 9DR      -0.082000
     23 OAS         -4.9500    -4.1480     6.0260 os         1 9DR      -0.135000
     24 CAU         -3.4740    -0.8530     5.8910 c2         1 9DR      -0.133000
     25 CAW         -4.5920    -2.8190     5.8380 c2         1 9DR      -0.003000
     26 CAX         -6.4780    -0.7430     6.6980 cx         1 9DR       0.031000
     27 CAY         -5.5840    -0.4750     5.4550 cu         1 9DR      -0.123000
     28 HAA          1.6790     1.9420     4.4760 hc         1 9DR       0.027000
     29 HAAA         3.2280     1.5540     4.8120 hc         1 9DR       0.027000
     30 HAAB         2.8430     2.2630     3.3800 hc         1 9DR       0.027000
     31 HAB         -4.4070    -5.1000     7.7410 h1         1 9DR       0.015667
     32 HABA        -6.0020    -5.1100     7.6510 h1         1 9DR       0.015667
     33 HABB        -5.1030    -3.8890     8.0770 h1         1 9DR       0.015667
     34 HNAC         2.8620    -0.5020    -1.2130 hn         1 9DR       0.070000
     35 HNAA         1.4930     0.2040    -2.0500 hn         1 9DR       0.070000
     36 HNAD        -2.7690    -0.5600     0.7010 hn         1 9DR       0.058500
     37 HNAB        -2.5460     0.7890     1.5150 hn         1 9DR       0.058500
     38 HAG         -9.8550    -0.8400     7.0400 h4         1 9DR       0.109500
     39 HAH         -6.9790     0.1540     9.8670 h4         1 9DR       0.109500
     40 HAI         -8.1160    -1.5570     5.2330 ha         1 9DR       0.140500
     41 HAJ         -5.2570     0.2140     8.3660 ha         1 9DR       0.140500
     42 HAK         -2.6350    -2.7580     6.2020 ha         1 9DR       0.122000
     43 HAL         -4.2320     1.0560     5.0800 ha         1 9DR       0.157000
     44 HAM         -6.7420    -2.6180     5.6960 hc         1 9DR       0.164000
     45 HAN          1.4540     0.3930     4.2060 hc         1 9DR       0.122000
     46 HANA         2.6820    -0.9900     3.5530 hc         1 9DR       0.122000
     47 HAO         -2.2220     0.8380     6.3120 hc         1 9DR       0.060000
     48 HAOA        -1.2550    -0.6270     6.7400 hc         1 9DR       0.060000
@<TRIPOS>BOND
     1     1     2 1   
     2     1     6 1   
     3     2     3 1   
     4     2     9 1   
     5     3     4 1   
     6     4     5 1   
     7     4    20 1   
     8     5     6 1   
     9     5    12 1   
    10     6    10 1   
    11     7    20 1   
    12     7    28 1   
    13     7    29 1   
    14     7    30 1   
    15     8    23 1   
    16     8    31 1   
    17     8    32 1   
    18     8    33 1   
    19     9    34 1   
    20     9    35 1   
    21    10    36 1   
    22    10    37 1   
    23    11    12 1   
    24    11    21 1   
    25    13    15 1   
    26    13    22 1   
    27    13    38 1   
    28    14    16 1   
    29    14    22 1   
    30    14    39 1   
    31    15    26 1   
    32    15    40 1   
    33    16    26 1   
    34    16    41 1   
    35    17    24 1   
    36    17    25 1   
    37    17    42 1   
    38    18    24 1   
    39    18    27 1   
    40    18    43 1   
    41    19    25 1   
    42    19    26 1   
    43    19    27 1   
    44    19    44 1   
    45    20    45 1   
    46    20    46 1   
    47    21    24 1   
    48    21    47 1   
    49    21    48 1   
    50    23    25 1   
    51    26    27 1   
@<TRIPOS>SUBSTRUCTURE
     1 9DR         1 TEMP              0 ****  ****    0 ROOT
