@<TRIPOS>MOLECULE
molecule
   48    50     1     0     0
SMALL
bcc


@<TRIPOS>ATOM
      1 N1           0.0000     0.0000     0.0000 nb         1 9DR      -0.845000
      2 C2           1.3250     0.0000     0.0000 ca         1 9DR       0.951900
      3 N3           2.0270     0.0000     1.1240 nb         1 9DR      -0.801000
      4 C4           1.4280    -0.0010     2.3040 ca         1 9DR       0.525600
      5 C5           0.0340     0.0000     2.3570 ca         1 9DR      -0.310600
      6 C6          -0.6790    -0.0010     1.1410 ca         1 9DR       0.803200
      7 CAA          2.5150     1.4410     4.0040 c3         1 9DR      -0.063100
      8 CAB         -5.1810    -4.5490     7.2210 c3         1 9DR       0.104700
      9 NAC          1.9960     0.0010    -1.2090 nv         1 9DR      -0.979500
     10 NAD         -2.0620    -0.0000     1.1360 nv         1 9DR      -1.049500
     11 CAE         -1.2050    -0.0140     4.6490 c1         1 9DR      -0.157100
     12 CAF         -0.6550    -0.0020     3.6120 cg         1 9DR      -0.070000
     13 CAG         -8.8400    -0.6420     7.3640 ca         1 9DR       0.413700
     14 CAH         -7.1670     0.1510     8.8000 ca         1 9DR       0.413700
     15 CAI         -7.8540    -1.0950     6.1770 ca         1 9DR      -0.257800
     16 CAJ         -6.2270    -0.1220     8.0200 ca         1 9DR      -0.257800
     17 CAK         -3.4560    -2.0820     5.9960 ca         1 9DR      -0.089000
     18 CAL         -4.5910     0.1720     5.5930 ca         1 9DR      -0.035000
     19 CAM         -5.8500    -2.0260     5.5310 ca         1 9DR      -0.125000
     20 CAN          2.2400    -0.0010     3.5730 c3         1 9DR      -0.188700
     21 CAO         -1.8740    -0.1380     5.9980 c3         1 9DR       0.048000
     22 NAP         -8.4280    -0.0660     8.5560 nb         1 9DR      -0.689000
     23 OAS         -4.9500    -4.1480     6.0260 os         1 9DR      -0.273900
     24 CAU         -3.4740    -0.8530     5.8910 ca         1 9DR      -0.124300
     25 CAW         -4.5920    -2.8190     5.8380 ca         1 9DR       0.043100
     26 CAX         -6.4780    -0.7430     6.6980 cp         1 9DR      -0.006000
     27 CAY         -5.5840    -0.4750     5.4550 cp         1 9DR      -0.101000
     28 HAA          1.6790     1.9420     4.4760 hc         1 9DR       0.026367
     29 HAAA         3.2280     1.5540     4.8120 hc         1 9DR       0.026367
     30 HAAB         2.8430     2.2630     3.3800 hc         1 9DR       0.026367
     31 HAB         -4.4070    -5.1000     7.7410 h1         1 9DR       0.013700
     32 HABA        -6.0020    -5.1100     7.6510 h1         1 9DR       0.013700
     33 HABB        -5.1030    -3.8890     8.0770 h1         1 9DR       0.013700
     34 HNAC         2.8620    -0.5020    -1.2130 hn         1 9DR       0.446800
     35 HNAA         1.4930     0.2040    -2.0500 hn         1 9DR       0.446800
     36 HNAD        -2.7690    -0.5600     0.7010 hn         1 9DR       0.428800
     37 HNAB        -2.5460     0.7890     1.5150 hn         1 9DR       0.428800
     38 HAG         -9.8550    -0.8400     7.0400 h4         1 9DR       0.019600
     39 HAH         -6.9790     0.1540     9.8670 h4         1 9DR       0.019600
     40 HAI         -8.1160    -1.5570     5.2330 ha         1 9DR       0.165500
     41 HAJ         -5.2570     0.2140     8.3660 ha         1 9DR       0.165500
     42 HAK         -2.6350    -2.7580     6.2020 ha         1 9DR       0.148000
     43 HAL         -4.2320     1.0560     5.0800 ha         1 9DR       0.188000
     44 HAM         -6.7420    -2.6180     5.6960 ha         1 9DR       0.185000
     45 HAN          1.4540     0.3930     4.2060 hc         1 9DR       0.112200
     46 HANA         2.6820    -0.9900     3.5530 hc         1 9DR       0.112200
     47 HAO         -2.2220     0.8380     6.3120 hc         1 9DR       0.065200
     48 HAOA        -1.2550    -0.6270     6.7400 hc         1 9DR       0.065200
@<TRIPOS>BOND
     1     2     1 ar
     2     6     1 ar
     3     3     2 ar
     4     2     9 1
     5     4     3 ar
     6    20     4 1
     7     4     5 ar
     8    12     5 1
     9     5     6 ar
    10     6    10 1
    11     7    20 1
    12     7    28 1
    13     7    29 1
    14     7    30 1
    15    23     8 1
    16     8    31 1
    17     8    32 1
    18     8    33 1
    19     9    34 1
    20     9    35 1
    21    10    36 1
    22    10    37 1
    23    21    11 1
    24    11    12 3
    25    13    15 ar
    26    13    22 ar
    27    13    38 1
    28    22    14 ar
    29    14    16 ar
    30    14    39 1
    31    15    26 ar
    32    15    40 1
    33    26    16 ar
    34    16    41 1
    35    25    17 ar
    36    17    24 ar
    37    17    42 1
    38    27    18 ar
    39    18    24 ar
    40    18    43 1
    41    19    25 ar
    42    19    27 ar
    43    19    44 1
    44    20    45 1
    45    20    46 1
    46    24    21 1
    47    21    47 1
    48    21    48 1
    49    23    25 1
    50    26    27 1
@<TRIPOS>SUBSTRUCTURE
     1 9DR         1 TEMP              0 ****  ****    0 ROOT
