@<TRIPOS>MOLECULE
molecule
   26    26     1     0     0
SMALL
bcc


@<TRIPOS>ATOM
      1 C36          1.5080     0.0000     0.0000 c          1 9DT       0.871600
      2 C38          0.0000     0.0000     0.0000 c3         1 9DT       0.001200
      3 C39         -0.5100     0.0000     1.4420 c3         1 9DT      -0.096100
      4 C40         -0.5100    -1.2500    -0.7210 c3         1 9DT      -0.035100
      5 C41         -2.0110    -1.1900    -0.8290 ca         1 9DT      -0.150300
      6 C42         -2.7980    -1.8130     0.1210 ca         1 9DT      -0.092000
      7 C43         -4.1760    -1.7580     0.0230 ca         1 9DT      -0.128000
      8 C44         -4.7680    -1.0800    -1.0260 ca         1 9DT      -0.102000
      9 C45         -3.9840    -0.4560    -1.9780 ca         1 9DT      -0.153000
     10 C46         -2.6030    -0.5060    -1.8770 ca         1 9DT       0.083900
     11 F47         -1.8350     0.1070    -2.8040 f          1 9DT      -0.155900
     12 N48         -0.4900     1.1990    -0.6930 nz         1 9DT      -0.788600
     13 O37          2.1780     1.1580     0.1010 o          1 9DT      -0.773300
     14 H2          -0.3850    -0.9880     1.8690 hc         1 9DT       0.058367
     15 H3           0.0530     0.7190     2.0240 hc         1 9DT       0.058367
     16 H4          -1.5590     0.2680     1.4540 hc         1 9DT       0.058367
     17 H5          -0.2230    -2.1320    -0.1610 hc         1 9DT       0.097200
     18 H6          -0.0770    -1.2970    -1.7130 hc         1 9DT       0.097200
     19 H7          -2.3350    -2.3450     0.9440 ha         1 9DT       0.151000
     20 H8          -4.7920    -2.2470     0.7680 ha         1 9DT       0.145000
     21 H9          -5.8480    -1.0390    -1.1040 ha         1 9DT       0.146000
     22 H10         -4.4480     0.0770    -2.7980 ha         1 9DT       0.151000
     23 H11         -1.4850     1.2550    -0.5990 hn         1 9DT       0.443133
     24 H12         -0.2490     1.1460    -1.6630 hn         1 9DT       0.443133
     25 OXT          2.1120    -1.0410    -0.0960 o          1 9DT      -0.773300
     26 H483        -0.0700     2.0120    -0.2890 hn         1 9DT       0.443133
@<TRIPOS>BOND
     1    13     1 1
     2     1     2 1
     3    12     2 1
     4     2     3 1
     5     2     4 1
     6     7     6 ar
     7     7     8 ar
     8     6     5 ar
     9     8     9 ar
    10     5     4 1
    11     5    10 ar
    12     9    10 ar
    13    10    11 1
    14     3    14 1
    15     3    15 1
    16     3    16 1
    17     4    17 1
    18     4    18 1
    19     6    19 1
    20     7    20 1
    21     8    21 1
    22     9    22 1
    23    12    23 1
    24    12    24 1
    25     1    25 1
    26    26    12 1
@<TRIPOS>SUBSTRUCTURE
     1 9DT         1 TEMP              0 ****  ****    0 ROOT
