@<TRIPOS>MOLECULE
9DW
   43    44     1     0     0
SMALL
bcc


@<TRIPOS>ATOM
      1 C01          0.0000     0.0000     0.0000 c3         1 9DW       0.008900
      2 C02          1.5300     0.0000     0.0000 c3         1 9DW       0.002900
      3 C05          2.9150    -0.6620     3.4540 ca         1 9DW       0.161100
      4 C07          2.5310    -2.7750     2.3860 ca         1 9DW      -0.028000
      5 C08          2.0650    -2.1120     1.2520 cp         1 9DW      -0.099000
      6 C09          1.6100    -2.8890     0.0720 cp         1 9DW      -0.003000
      7 C11          0.1800    -4.5590    -0.8920 ca         1 9DW      -0.103500
      8 C12          0.7590    -4.3380    -2.1280 ca         1 9DW      -0.148300
      9 C13          1.7660    -3.4000    -2.2670 ca         1 9DW      -0.103500
     10 C14          2.1940    -2.6750    -1.1740 ca         1 9DW      -0.090500
     11 C15          0.2970    -5.1270    -3.3250 c3         1 9DW       0.043900
     12 C03          2.0330    -0.7190     1.2250 ca         1 9DW      -0.024300
     13 C04          2.4570     0.0000     2.3230 ca         1 9DW      -0.139000
     14 C06          2.9530    -2.0490     3.4810 ca         1 9DW      -0.238000
     15 C10          0.5990    -3.8400     0.2090 ca         1 9DW      -0.090500
     16 C16         -0.8490    -4.3830    -4.0140 c3         1 9DW      -0.198500
     17 C88         -1.2300    -5.1080    -5.2800 c          1 9DW       0.956600
     18 CA7          3.7910    -0.6960     5.6630 c3         1 9DW       0.111700
     19 N17         -2.0090    -4.3290    -3.1140 nz         1 9DW       0.079400
     20 O89         -0.4980    -4.9440    -6.3930 o          1 9DW      -0.819800
     21 H1          -0.3610     0.9740     0.3060 hc         1 9DW       0.002700
     22 H2          -0.3610    -0.7520     0.6910 hc         1 9DW       0.002700
     23 H3          -0.3610    -0.2220    -0.9970 hc         1 9DW       0.002700
     24 H4           1.8900     1.0210     0.0070 hc         1 9DW       0.028700
     25 H5           1.8910    -0.5040    -0.8880 hc         1 9DW       0.028700
     26 H6           2.5610    -3.8570     2.4080 ha         1 9DW       0.108000
     27 H7          -0.6070    -5.2970    -0.7880 ha         1 9DW       0.108500
     28 H8           2.2180    -3.2330    -3.2370 ha         1 9DW       0.108500
     29 H9           2.9830    -1.9410    -1.2850 ha         1 9DW       0.118500
     30 H10         -0.0470    -6.1030    -3.0040 hc         1 9DW       0.056200
     31 H11          1.1200    -5.2450    -4.0190 hc         1 9DW       0.056200
     32 H12          2.4280     1.0830     2.3040 ha         1 9DW       0.125000
     33 H13          3.3140    -2.5630     4.3640 ha         1 9DW       0.143000
     34 H14          0.1440    -4.0140     1.1770 ha         1 9DW       0.118500
     35 H15         -0.5320    -3.3760    -4.2560 hx         1 9DW       0.087700
     36 H17          3.2120    -0.5460     6.5660 h1         1 9DW       0.039367
     37 H18          3.3820    -1.4360     4.9850 h1         1 9DW       0.039367
     38 H19          4.8680    -0.7370     5.7740 h1         1 9DW       0.039367
     39 H20         -2.8270    -4.0930    -3.6390 hn         1 9DW       0.212467
     40 H21         -1.8520    -3.6350    -2.4100 hn         1 9DW       0.212467
     41 OXT         -2.1930    -5.8370    -5.2920 o          1 9DW      -0.819800
     42 H173        -2.1360    -5.2220    -2.6800 hn         1 9DW       0.212467
     43 OA6          3.3320     0.0490     4.5330 os         1 9DW      -0.308900
@<TRIPOS>BOND
     1     1     2 1   
     2     1    21 1   
     3     1    22 1   
     4     1    23 1   
     5     2    12 1   
     6     2    24 1   
     7     2    25 1   
     8     3    13 ar  
     9     3    14 ar  
    10     3    43 1   
    11     4     5 ar  
    12     4    14 ar  
    13     4    26 1   
    14     5     6 1   
    15     5    12 ar  
    16     6    10 ar  
    17     6    15 ar  
    18     7     8 ar  
    19     7    15 ar  
    20     7    27 1   
    21     8     9 ar  
    22     8    11 1   
    23     9    10 ar  
    24     9    28 1   
    25    10    29 1   
    26    11    16 1   
    27    11    30 1   
    28    11    31 1   
    29    12    13 ar  
    30    13    32 1   
    31    14    33 1   
    32    15    34 1   
    33    16    17 1   
    34    16    19 1   
    35    16    35 1   
    36    17    20 1   
    37    17    41 1   
    38    18    36 1   
    39    18    37 1   
    40    18    38 1   
    41    18    43 1   
    42    19    39 1   
    43    19    40 1   
    44    19    42 1   
@<TRIPOS>SUBSTRUCTURE
     1 9DW         1 TEMP              0 ****  ****    0 ROOT
