@<TRIPOS>MOLECULE
9DX
   35    36     1     0     0
SMALL
bcc


@<TRIPOS>ATOM
      1 OAC          0.0000     0.0000     0.0000 o          1 9DX      -0.870300
      2 CAN          1.3420     0.0000     0.0000 c          1 9DX       0.985600
      3 OAE          1.9460    -0.0010    -1.0470 o          1 9DX      -0.870300
      4 CAS          2.0960     0.0000     1.3050 c3         1 9DX       0.022800
      5 CB           2.2320    -1.4320     1.8270 c3         1 9DX      -0.007400
      6 CA           0.8470    -2.0760     1.9130 c3         1 9DX      -0.205500
      7 N            0.0400    -1.3710     2.9180 nz         1 9DX       0.070400
      8 C            0.9900    -3.5230     2.3080 c          1 9DX       0.968600
      9 O            0.8050    -3.8570     3.4550 o          1 9DX      -0.860800
     10 OXT          1.3240    -4.4410     1.3880 o          1 9DX      -0.860800
     11 OAL          1.4020     0.8060     2.2690 os         1 9DX      -0.403600
     12 CAR          2.2630     1.8530     2.7180 c3         1 9DX       0.141100
     13 CAP          1.5030     3.1160     3.0770 c3         1 9DX       0.195100
     14 OAF          0.4530     2.7910     3.9900 oh         1 9DX      -0.579800
     15 CAH          0.9010     3.7550     1.8230 c3         1 9DX      -0.095400
     16 CAG          2.0390     4.0240     0.8300 c3         1 9DX       0.219400
     17 OAK          2.6540     2.7830     0.4960 os         1 9DX      -0.357600
     18 CAQ          3.2740     2.0890     1.5790 c3         1 9DX       0.151100
     19 CAJ          3.4970     0.6200     1.1010 c3         1 9DX      -0.053400
     20 HB           2.6850    -1.4160     2.8110 hc         1 9DX       0.038700
     21 HBA          2.8560    -2.0050     1.1520 hc         1 9DX       0.038700
     22 HA           0.3590    -2.0120     0.9480 hx         1 9DX       0.148700
     23 HN          -0.7020    -1.9670     3.2270 hn         1 9DX       0.215800
     24 HNA         -0.3460    -0.5410     2.5130 hn         1 9DX       0.215800
     25 HAR          2.8000     1.5100     3.5940 h1         1 9DX      -0.002300
     26 HAP          2.1820     3.8190     3.5430 h1         1 9DX      -0.013300
     27 HOAF         0.5130     3.3470     4.7490 ho         1 9DX       0.373000
     28 HAH          0.1820     3.0790     1.3780 hc         1 9DX       0.042700
     29 HAHA         0.4190     4.6890     2.0860 hc         1 9DX       0.042700
     30 HAG          2.7700     4.6810     1.2850 h1         1 9DX      -0.003300
     31 HAGA         1.6370     4.4830    -0.0660 h1         1 9DX      -0.003300
     32 HAQ          4.1880     2.5610     1.9190 h1         1 9DX       0.006700
     33 HAJ          4.2320     0.1210     1.7200 hc         1 9DX       0.047700
     34 HAJA         3.7800     0.5950     0.0550 hc         1 9DX       0.047700
     35 HN3          0.6200    -1.1150     3.6920 hn         1 9DX       0.215800
@<TRIPOS>BOND
     1     1     2 1   
     2     2     3 1   
     3     2     4 1   
     4     4     5 1   
     5     4    11 1   
     6     4    19 1   
     7     5     6 1   
     8     5    20 1   
     9     5    21 1   
    10     6     7 1   
    11     6     8 1   
    12     6    22 1   
    13     7    23 1   
    14     7    24 1   
    15     7    35 1   
    16     8     9 1   
    17     8    10 1   
    18    11    12 1   
    19    12    13 1   
    20    12    18 1   
    21    12    25 1   
    22    13    14 1   
    23    13    15 1   
    24    13    26 1   
    25    14    27 1   
    26    15    16 1   
    27    15    28 1   
    28    15    29 1   
    29    16    17 1   
    30    16    30 1   
    31    16    31 1   
    32    17    18 1   
    33    18    19 1   
    34    18    32 1   
    35    19    33 1   
    36    19    34 1   
@<TRIPOS>SUBSTRUCTURE
     1 9DX         1 TEMP              0 ****  ****    0 ROOT
