@<TRIPOS>MOLECULE
molecule
   35    36     1     0     0
SMALL
bcc


@<TRIPOS>ATOM
      1 OAC          0.0000     0.0000     0.0000 o          1 9DX      -0.826300
      2 CAN          1.3420     0.0000     0.0000 c          1 9DX       0.903600
      3 OAE          1.9460    -0.0010    -1.0470 o          1 9DX      -0.826300
      4 CAS          2.0960     0.0000     1.3050 c3         1 9DX       0.013800
      5 CB           2.2320    -1.4320     1.8270 c3         1 9DX      -0.073400
      6 CA           0.8470    -2.0760     1.9130 c3         1 9DX      -0.002500
      7 N            0.0400    -1.3710     2.9180 nz         1 9DX      -0.779600
      8 C            0.9900    -3.5230     2.3080 c          1 9DX       0.871600
      9 O            0.8050    -3.8570     3.4550 o          1 9DX      -0.816300
     10 OXT          1.3240    -4.4410     1.3880 o          1 9DX      -0.816300
     11 OAL          1.4020     0.8060     2.2690 os         1 9DX      -0.416600
     12 CAR          2.2630     1.8530     2.7180 c3         1 9DX       0.112100
     13 CAP          1.5030     3.1160     3.0770 c3         1 9DX       0.153100
     14 OAF          0.4530     2.7910     3.9900 oh         1 9DX      -0.597800
     15 CAH          0.9010     3.7550     1.8230 c3         1 9DX      -0.132400
     16 CAG          2.0390     4.0240     0.8300 c3         1 9DX       0.142400
     17 OAK          2.6540     2.7830     0.4960 os         1 9DX      -0.372600
     18 CAQ          3.2740     2.0890     1.5790 c3         1 9DX       0.112100
     19 CAJ          3.4970     0.6200     1.1010 c3         1 9DX      -0.087400
     20 HB           2.6850    -1.4160     2.8110 hc         1 9DX       0.067200
     21 HBA          2.8560    -2.0050     1.1520 hc         1 9DX       0.067200
     22 HA           0.3590    -2.0120     0.9480 hx         1 9DX       0.158700
     23 HN          -0.7020    -1.9670     3.2270 hn         1 9DX       0.439467
     24 HNA         -0.3460    -0.5410     2.5130 hn         1 9DX       0.439467
     25 HAR          2.8000     1.5100     3.5940 h1         1 9DX       0.023700
     26 HAP          2.1820     3.8190     3.5430 h1         1 9DX       0.018700
     27 HOAF         0.5130     3.3470     4.7490 ho         1 9DX       0.386000
     28 HAH          0.1820     3.0790     1.3780 hc         1 9DX       0.070700
     29 HAHA         0.4190     4.6890     2.0860 hc         1 9DX       0.070700
     30 HAG          2.7700     4.6810     1.2850 h1         1 9DX       0.035700
     31 HAGA         1.6370     4.4830    -0.0660 h1         1 9DX       0.035700
     32 HAQ          4.1880     2.5610     1.9190 h1         1 9DX       0.036700
     33 HAJ          4.2320     0.1210     1.7200 hc         1 9DX       0.075200
     34 HAJA         3.7800     0.5950     0.0550 hc         1 9DX       0.075200
     35 HN3          0.6200    -1.1150     3.6920 hn         1 9DX       0.439467
@<TRIPOS>BOND
     1     1     2 1
     2     2     3 1
     3     2     4 1
     4     4     5 1
     5     4    11 1
     6     4    19 1
     7     5     6 1
     8     6     7 1
     9     6     8 1
    10     8     9 1
    11     8    10 1
    12    11    12 1
    13    12    13 1
    14    12    18 1
    15    13    14 1
    16    13    15 1
    17    15    16 1
    18    16    17 1
    19    17    18 1
    20    18    19 1
    21     5    20 1
    22     5    21 1
    23     6    22 1
    24     7    23 1
    25     7    24 1
    26    12    25 1
    27    13    26 1
    28    14    27 1
    29    15    28 1
    30    15    29 1
    31    16    30 1
    32    16    31 1
    33    18    32 1
    34    19    33 1
    35    19    34 1
    36    35     7 1
@<TRIPOS>SUBSTRUCTURE
     1 9DX         1 TEMP              0 ****  ****    0 ROOT
