@<TRIPOS>MOLECULE
molecule
   38    38     1     0     0
SMALL
bcc


@<TRIPOS>ATOM
      1 C91          1.5300     0.0000     0.0000 c3         1 9DZ       0.033500
      2 C92          0.0000     0.0000     0.0000 c3         1 9DZ      -0.122400
      3 C93         -0.5090     0.1260    -1.4370 c3         1 9DZ      -0.089400
      4 C94         -2.0390     0.1270    -1.4380 c3         1 9DZ      -0.015100
      5 C95         -2.5410     0.2510    -2.8530 ca         1 9DZ      -0.124300
      6 C96         -2.7720    -0.8850    -3.6070 ca         1 9DZ      -0.132500
      7 C97         -3.2310    -0.7710    -4.9050 ca         1 9DZ      -0.058800
      8 C98         -3.4620     0.4780    -5.4500 ca         1 9DZ      -0.102000
      9 C99         -3.2320     1.6140    -4.6960 ca         1 9DZ      -0.058800
     10 CA0         -2.7770     1.4990    -3.3960 ca         1 9DZ      -0.132500
     11 CA1         -3.4820     2.9760    -5.2900 c3         1 9DZ      -0.053800
     12 CA2         -3.4810    -2.0100    -5.7280 c3         1 9DZ      -0.053800
     13 CA3          2.0320     0.0000     1.4210 c          1 9DZ       0.473100
     14 N90          2.0200    -1.2000    -0.6920 nz         1 9DZ      -0.800600
     15 NA5          2.0660     1.1500     2.1240 nz         1 9DZ      -0.677400
     16 OA4          2.4060    -1.0350     1.9320 o          1 9DZ      -0.365100
     17 H1           1.8920     0.8840    -0.5110 hx         1 9DZ       0.144700
     18 H2          -0.3610    -0.9260     0.4310 hc         1 9DZ       0.096200
     19 H3          -0.3610     0.8360     0.5860 hc         1 9DZ       0.096200
     20 H4          -0.1480     1.0520    -1.8680 hc         1 9DZ       0.055700
     21 H5          -0.1480    -0.7100    -2.0230 hc         1 9DZ       0.055700
     22 H6          -2.4000    -0.7990    -1.0060 hc         1 9DZ       0.062700
     23 H7          -2.4000     0.9630    -0.8520 hc         1 9DZ       0.062700
     24 H8          -2.5910    -1.8650    -3.1800 ha         1 9DZ       0.123000
     25 H9          -3.8200     0.5670    -6.4680 ha         1 9DZ       0.156000
     26 H10         -2.5980     2.3890    -2.8050 ha         1 9DZ       0.123000
     27 H11         -4.5030     3.0310    -5.6500 hc         1 9DZ       0.055700
     28 H12         -2.8000     3.1410    -6.1150 hc         1 9DZ       0.055700
     29 H13         -3.3250     3.7350    -4.5340 hc         1 9DZ       0.055700
     30 H14         -4.5420    -2.2280    -5.7370 hc         1 9DZ       0.055700
     31 H15         -3.1370    -1.8460    -6.7420 hc         1 9DZ       0.055700
     32 H16         -2.9450    -2.8450    -5.2950 hc         1 9DZ       0.055700
     33 H17          1.4870    -1.9940    -0.3990 hn         1 9DZ       0.485467
     34 H18          2.9850    -1.3440    -0.4670 hn         1 9DZ       0.485467
     35 H20          2.8610     1.1470     2.7310 hn         1 9DZ       0.504467
     36 H21          2.1310     1.9240     1.4930 hn         1 9DZ       0.504467
     37 H903         1.8460    -1.1130    -1.6730 hn         1 9DZ       0.485467
     38 HA53         1.2480     1.2140     2.6970 hn         1 9DZ       0.504467
@<TRIPOS>BOND
     1    12     7 1
     2     8     7 ar
     3     8     9 ar
     4     7     6 ar
     5    11     9 1
     6     9    10 ar
     7     6     5 ar
     8    10     5 ar
     9     5     4 1
    10     4     3 1
    11     3     2 1
    12    16    13 2
    13     2     1 1
    14    15    13 1
    15    13     1 1
    16     1    14 1
    17     1    17 1
    18     2    18 1
    19     2    19 1
    20     3    20 1
    21     3    21 1
    22     4    22 1
    23     4    23 1
    24     6    24 1
    25     8    25 1
    26    10    26 1
    27    11    27 1
    28    11    28 1
    29    11    29 1
    30    12    30 1
    31    12    31 1
    32    12    32 1
    33    14    33 1
    34    14    34 1
    35    15    35 1
    36    15    36 1
    37    37    14 1
    38    38    15 1
@<TRIPOS>SUBSTRUCTURE
     1 9DZ         1 TEMP              0 ****  ****    0 ROOT
