@<TRIPOS>MOLECULE
9DZ
   38    38     1     0     0
SMALL
bcc


@<TRIPOS>ATOM
      1 C91          1.5300     0.0000     0.0000 c3         1 9DZ      -0.145500
      2 C92          0.0000     0.0000     0.0000 c3         1 9DZ      -0.045400
      3 C93         -0.5090     0.1260    -1.4370 c3         1 9DZ      -0.033400
      4 C94         -2.0390     0.1270    -1.4380 c3         1 9DZ       0.058900
      5 C95         -2.5410     0.2510    -2.8530 ca         1 9DZ      -0.140300
      6 C96         -2.7720    -0.8850    -3.6070 ca         1 9DZ      -0.108500
      7 C97         -3.2310    -0.7710    -4.9050 ca         1 9DZ      -0.061300
      8 C98         -3.4620     0.4780    -5.4500 ca         1 9DZ      -0.072000
      9 C99         -3.2320     1.6140    -4.6960 ca         1 9DZ      -0.061300
     10 CA0         -2.7770     1.4990    -3.3960 ca         1 9DZ      -0.108500
     11 CA1         -3.4820     2.9760    -5.2900 c3         1 9DZ       0.059700
     12 CA2         -3.4810    -2.0100    -5.7280 c3         1 9DZ       0.059700
     13 CA3          2.0320     0.0000     1.4210 c          1 9DZ       0.318100
     14 N90          2.0200    -1.2000    -0.6920 nz         1 9DZ       0.085400
     15 NA5          2.0660     1.1500     2.1240 nz         1 9DZ       0.221600
     16 OA4          2.4060    -1.0350     1.9320 o          1 9DZ      -0.366100
     17 H1           1.8920     0.8840    -0.5110 hx         1 9DZ       0.115700
     18 H2          -0.3610    -0.9260     0.4310 hc         1 9DZ       0.058700
     19 H3          -0.3610     0.8360     0.5860 hc         1 9DZ       0.058700
     20 H4          -0.1480     1.0520    -1.8680 hc         1 9DZ       0.024700
     21 H5          -0.1480    -0.7100    -2.0230 hc         1 9DZ       0.024700
     22 H6          -2.4000    -0.7990    -1.0060 hc         1 9DZ       0.028700
     23 H7          -2.4000     0.9630    -0.8520 hc         1 9DZ       0.028700
     24 H8          -2.5910    -1.8650    -3.1800 ha         1 9DZ       0.102000
     25 H9          -3.8200     0.5670    -6.4680 ha         1 9DZ       0.127000
     26 H10         -2.5980     2.3890    -2.8050 ha         1 9DZ       0.102000
     27 H11         -4.5030     3.0310    -5.6500 hc         1 9DZ       0.017700
     28 H12         -2.8000     3.1410    -6.1150 hc         1 9DZ       0.017700
     29 H13         -3.3250     3.7350    -4.5340 hc         1 9DZ       0.017700
     30 H14         -4.5420    -2.2280    -5.7370 hc         1 9DZ       0.017700
     31 H15         -3.1370    -1.8460    -6.7420 hc         1 9DZ       0.017700
     32 H16         -2.9450    -2.8450    -5.2950 hc         1 9DZ       0.017700
     33 H17          1.4870    -1.9940    -0.3990 hn         1 9DZ       0.252467
     34 H18          2.9850    -1.3440    -0.4670 hn         1 9DZ       0.252467
     35 H20          2.8610     1.1470     2.7310 hn         1 9DZ       0.268467
     36 H21          2.1310     1.9240     1.4930 hn         1 9DZ       0.268467
     37 H903         1.8460    -1.1130    -1.6730 hn         1 9DZ       0.252467
     38 HA53         1.2480     1.2140     2.6970 hn         1 9DZ       0.268467
@<TRIPOS>BOND
     1     1     2 1   
     2     1    13 1   
     3     1    14 1   
     4     1    17 1   
     5     2     3 1   
     6     2    18 1   
     7     2    19 1   
     8     3     4 1   
     9     3    20 1   
    10     3    21 1   
    11     4     5 1   
    12     4    22 1   
    13     4    23 1   
    14     5     6 ar  
    15     5    10 ar  
    16     6     7 ar  
    17     6    24 1   
    18     7     8 ar  
    19     7    12 1   
    20     8     9 ar  
    21     8    25 1   
    22     9    10 ar  
    23     9    11 1   
    24    10    26 1   
    25    11    27 1   
    26    11    28 1   
    27    11    29 1   
    28    12    30 1   
    29    12    31 1   
    30    12    32 1   
    31    13    15 1   
    32    13    16 2   
    33    14    33 1   
    34    14    34 1   
    35    14    37 1   
    36    15    35 1   
    37    15    36 1   
    38    15    38 1   
@<TRIPOS>SUBSTRUCTURE
     1 9DZ         1 TEMP              0 ****  ****    0 ROOT
