@<TRIPOS>MOLECULE
molecule
   50    52     1     0     0
SMALL
bcc


@<TRIPOS>ATOM
      1 N3           0.0000     0.0000     0.0000 nc         1 9E1      -0.335000
      2 C4           1.7330     0.0000     1.2280 cd         1 9E1       0.366400
      3 N2           1.2860     0.0000     0.0000 nc         1 9E1      -0.355000
      4 C7          -2.8670     0.1260     0.7200 ca         1 9E1      -0.224300
      5 C6          -1.8550     0.0010     1.6700 ca         1 9E1       0.452300
      6 C9          -4.4580    -0.0010     2.4880 ca         1 9E1      -0.289300
      7 C13         -4.2220    -0.7570     7.4970 ca         1 9E1       0.022000
      8 C8          -4.1880     0.1250     1.1350 ca         1 9E1      -0.060000
      9 C18          0.4260    -0.2950     8.5730 c3         1 9E1       0.109700
     10 C16         -2.1270    -0.7590     9.3250 ca         1 9E1      -0.234000
     11 C1           1.2740    -1.3110     4.0230 c3         1 9E1      -0.098100
     12 C3           1.5170     1.1750     4.0200 c3         1 9E1      -0.098100
     13 N1           0.6610     0.0010     2.0530 na         1 9E1      -0.291700
     14 C5          -0.4400     0.0010     1.2390 cd         1 9E1       0.286500
     15 C10         -3.4010    -0.1210     3.3850 ca         1 9E1       0.544200
     16 N4          -2.1500    -0.1180     2.9600 nb         1 9E1      -0.711000
     17 C11         -2.6510    -0.2500     5.6330 c          1 9E1       0.667700
     18 O1          -1.5150    -0.0360     5.2570 o          1 9E1      -0.509100
     19 C12         -2.9180    -0.5110     7.0610 ca         1 9E1      -0.179600
     20 C14         -4.4640    -0.9990     8.8320 ca         1 9E1      -0.392500
     21 C15         -3.4210    -1.0000     9.7430 ca         1 9E1       0.025000
     22 C17         -1.8650    -0.5130     7.9860 ca         1 9E1       0.283100
     23 O2          -0.5950    -0.2760     7.5730 os         1 9E1      -0.251900
     24 S1          -6.1090    -1.3090     9.3830 sy         1 9E1       1.230200
     25 O3          -6.1410    -0.9740    10.7630 o          1 9E1      -0.520800
     26 O4          -6.9720    -0.7180     8.4200 o          1 9E1      -0.520800
     27 N6          -6.3570    -2.9430     9.2920 nz         1 9E1      -0.807500
     28 H8           2.7740     0.0000     1.5300 h5         1 9E1       0.076100
     29 H9          -2.6230     0.2230    -0.3310 ha         1 9E1       0.179000
     30 H11         -5.4810    -0.0050     2.8440 ha         1 9E1       0.134000
     31 H13         -5.0410    -0.7570     6.7880 ha         1 9E1       0.152000
     32 H10         -4.9940     0.2200     0.4170 ha         1 9E1       0.155000
     33 H12         -4.6090    -0.3430     5.0670 hn         1 9E1       0.322500
     34 H18          0.4930    -1.2870     9.0020 h1         1 9E1       0.063367
     35 H16          1.3760    -0.0310     8.1240 h1         1 9E1       0.063367
     36 H17          0.1830     0.4200     9.3500 h1         1 9E1       0.063367
     37 H15         -1.3170    -0.7620    10.0440 ha         1 9E1       0.174000
     38 H1           0.6890    -2.1430     3.6500 hc         1 9E1       0.042533
     39 H3           1.2780    -1.3300     5.1070 hc         1 9E1       0.042533
     40 H2           2.2900    -1.3920     3.6570 hc         1 9E1       0.042533
     41 H4          -0.3400     0.1020     3.8880 h1         1 9E1       0.151700
     42 H6           1.4870     1.2050     5.1020 hc         1 9E1       0.042533
     43 H7           1.1490     2.1120     3.6220 hc         1 9E1       0.042533
     44 H5           2.5380     1.0200     3.6920 hc         1 9E1       0.042533
     45 H14         -3.6220    -1.1920    10.7900 ha         1 9E1       0.159000
     46 H19         -7.2790    -3.1600     9.6150 hn         1 9E1       0.492133
     47 H20         -6.2570    -3.2440     8.3430 hn         1 9E1       0.492133
     48 N5          -3.6660    -0.2490     4.7470 ns         1 9E1      -0.550400
     49 C2           0.6730     0.0020     3.5180 c3         1 9E1       0.016000
     50 H63         -5.6840    -3.4150     9.8640 hn         1 9E1       0.492133
@<TRIPOS>BOND
     1     1     3 1
     2     1    14 2
     3     2     3 2
     4     2    13 1
     5     4     5 ar
     6     4     8 ar
     7     5    14 1
     8     5    16 ar
     9     6     8 ar
    10     6    15 ar
    11     7    19 ar
    12     7    20 ar
    13    48    15 1
    14    48    17 1
    15     9    23 1
    16    10    21 ar
    17    10    22 ar
    18    11    49 1
    19    49    12 1
    20    49    13 1
    21    13    14 1
    22    15    16 ar
    23    17    18 2
    24    17    19 1
    25    19    22 ar
    26    20    21 ar
    27    20    24 1
    28    22    23 1
    29    24    25 2
    30    24    26 2
    31    24    27 1
    32     2    28 1
    33     4    29 1
    34     6    30 1
    35     7    31 1
    36     8    32 1
    37    48    33 1
    38     9    34 1
    39     9    35 1
    40     9    36 1
    41    10    37 1
    42    11    38 1
    43    11    39 1
    44    11    40 1
    45    49    41 1
    46    12    42 1
    47    12    43 1
    48    12    44 1
    49    21    45 1
    50    27    47 1
    51    27    46 1
    52    50    27 1
@<TRIPOS>SUBSTRUCTURE
     1 9E1         1 TEMP              0 ****  ****    0 ROOT
