@<TRIPOS>MOLECULE
9E1
   50    52     1     0     0
SMALL
bcc


@<TRIPOS>ATOM
      1 N3           0.0000     0.0000     0.0000 nc         1 9E1      -0.310000
      2 C4           1.7330     0.0000     1.2280 cd         1 9E1       0.204400
      3 N2           1.2860     0.0000     0.0000 nc         1 9E1      -0.329000
      4 C7          -2.8670     0.1260     0.7200 ca         1 9E1      -0.188300
      5 C6          -1.8550     0.0010     1.6700 ca         1 9E1       0.407300
      6 C9          -4.4580    -0.0010     2.4880 ca         1 9E1      -0.261300
      7 C13         -4.2220    -0.7570     7.4970 ca         1 9E1       0.058000
      8 C8          -4.1880     0.1250     1.1350 ca         1 9E1      -0.030000
      9 C18          0.4260    -0.2950     8.5730 c3         1 9E1       0.230700
     10 C16         -2.1270    -0.7590     9.3250 ca         1 9E1      -0.232000
     11 C1           1.2740    -1.3110     4.0230 c3         1 9E1       0.004400
     12 C3           1.5170     1.1750     4.0200 c3         1 9E1       0.004400
     13 N1           0.6610     0.0010     2.0530 na         1 9E1       0.194300
     14 C5          -0.4400     0.0010     1.2390 cd         1 9E1       0.091500
     15 C10         -3.4010    -0.1210     3.3850 ca         1 9E1       0.344200
     16 N4          -2.1500    -0.1180     2.9600 nb         1 9E1      -0.582000
     17 C11         -2.6510    -0.2500     5.6330 c          1 9E1       0.573700
     18 O1          -1.5150    -0.0360     5.2570 o          1 9E1      -0.562100
     19 C12         -2.9180    -0.5110     7.0610 ca         1 9E1      -0.207600
     20 C14         -4.4640    -0.9990     8.8320 ca         1 9E1      -0.282500
     21 C15         -3.4210    -1.0000     9.7430 ca         1 9E1       0.074000
     22 C17         -1.8650    -0.5130     7.9860 ca         1 9E1       0.304100
     23 O2          -0.5950    -0.2760     7.5730 os         1 9E1      -0.233900
     24 S1          -6.1090    -1.3090     9.3830 sy         1 9E1       0.939200
     25 O3          -6.1410    -0.9740    10.7630 o          1 9E1      -0.497300
     26 O4          -6.9720    -0.7180     8.4200 o          1 9E1      -0.497300
     27 N6          -6.3570    -2.9430     9.2920 nz         1 9E1      -0.131500
     28 H8           2.7740     0.0000     1.5300 h5         1 9E1       0.036100
     29 H9          -2.6230     0.2230    -0.3310 ha         1 9E1       0.150000
     30 H11         -5.4810    -0.0050     2.8440 ha         1 9E1       0.113000
     31 H13         -5.0410    -0.7570     6.7880 ha         1 9E1       0.123000
     32 H10         -4.9940     0.2200     0.4170 ha         1 9E1       0.119000
     33 H12         -4.6090    -0.3430     5.0670 hn         1 9E1       0.165500
     34 H18          0.4930    -1.2870     9.0020 h1         1 9E1       0.013700
     35 H16          1.3760    -0.0310     8.1240 h1         1 9E1       0.013700
     36 H17          0.1830     0.4200     9.3500 h1         1 9E1       0.013700
     37 H15         -1.3170    -0.7620    10.0440 ha         1 9E1       0.152000
     38 H1           0.6890    -2.1430     3.6500 hc         1 9E1       0.010867
     39 H3           1.2780    -1.3300     5.1070 hc         1 9E1       0.010867
     40 H2           2.2900    -1.3920     3.6570 hc         1 9E1       0.010867
     41 H4          -0.3400     0.1020     3.8880 h1         1 9E1       0.140700
     42 H6           1.4870     1.2050     5.1020 hc         1 9E1       0.010867
     43 H7           1.1490     2.1120     3.6220 hc         1 9E1       0.010867
     44 H5           2.5380     1.0200     3.6920 hc         1 9E1       0.010867
     45 H14         -3.6220    -1.1920    10.7900 ha         1 9E1       0.124000
     46 H19         -7.2790    -3.1600     9.6150 hn         1 9E1       0.313467
     47 H20         -6.2570    -3.2440     8.3430 hn         1 9E1       0.313467
     48 N5          -3.6660    -0.2490     4.7470 ns         1 9E1      -0.107400
     49 C2           0.6730     0.0020     3.5180 c3         1 9E1      -0.145000
     50 H63         -5.6840    -3.4150     9.8640 hn         1 9E1       0.313467
@<TRIPOS>BOND
     1     1     3 1   
     2     1    14 2   
     3     2     3 2   
     4     2    13 1   
     5     2    28 1   
     6     4     5 ar  
     7     4     8 ar  
     8     4    29 1   
     9     5    14 1   
    10     5    16 ar  
    11     6     8 ar  
    12     6    15 ar  
    13     6    30 1   
    14     7    19 ar  
    15     7    20 ar  
    16     7    31 1   
    17     8    32 1   
    18     9    23 1   
    19     9    34 1   
    20     9    35 1   
    21     9    36 1   
    22    10    21 ar  
    23    10    22 ar  
    24    10    37 1   
    25    11    38 1   
    26    11    39 1   
    27    11    40 1   
    28    11    49 1   
    29    12    42 1   
    30    12    43 1   
    31    12    44 1   
    32    12    49 1   
    33    13    14 1   
    34    13    49 1   
    35    15    16 ar  
    36    15    48 1   
    37    17    18 2   
    38    17    19 1   
    39    17    48 1   
    40    19    22 ar  
    41    20    21 ar  
    42    20    24 1   
    43    21    45 1   
    44    22    23 1   
    45    24    25 2   
    46    24    26 2   
    47    24    27 1   
    48    27    46 1   
    49    27    47 1   
    50    27    50 1   
    51    33    48 1   
    52    41    49 1   
@<TRIPOS>SUBSTRUCTURE
     1 9E1         1 TEMP              0 ****  ****    0 ROOT
