@<TRIPOS>MOLECULE
molecule
   37    38     1     0     0
SMALL
bcc


@<TRIPOS>ATOM
      1 C11          0.0000     0.0000     0.0000 ca         1 9E2      -0.014000
      2 C5           5.6540     0.5330     0.1720 c3         1 9E2       0.013300
      3 C9          -0.0060    -0.0040     2.3970 ca         1 9E2      -0.014000
      4 C8           1.3750    -0.0100     2.4030 ca         1 9E2      -0.158000
      5 C7           2.0740     0.0000     1.2040 ca         1 9E2       0.162600
      6 C6           4.1530     0.6380     0.2370 c          1 9E2       0.634100
      7 N4          -2.9510    -1.5720     1.1880 nz         1 9E2      -0.807500
      8 C2           6.3360     0.8610    -2.2210 cc         1 9E2      -0.047600
      9 N1           6.5200     2.6670    -0.9340 nc         1 9E2      -0.424800
     10 N3           3.4730    -0.0060     1.2070 ns         1 9E2      -0.483100
     11 C3           6.8020     1.8910    -2.9660 cd         1 9E2      -0.145900
     12 C4           6.9080     3.0120    -2.1350 cd         1 9E2       0.310800
     13 N5           7.3810     4.3530    -2.5420 no         1 9E2       0.217500
     14 O5           7.7180     4.5560    -3.6950 o          1 9E2      -0.159500
     15 O4           7.4340     5.2550    -1.7250 o          1 9E2      -0.159500
     16 N2           6.1490     1.3160    -0.9630 na         1 9E2       0.087400
     17 O1           3.5550     1.3010    -0.5840 o          1 9E2      -0.536100
     18 C12          1.3820     0.0000     0.0000 ca         1 9E2      -0.158000
     19 C10         -0.6930     0.0000     1.1970 ca         1 9E2      -0.351500
     20 S1          -2.4550     0.0080     1.1920 sy         1 9E2       1.227200
     21 O3          -2.8510     0.5570    -0.0580 o          1 9E2      -0.517300
     22 O2          -2.8570     0.5510     2.4420 o          1 9E2      -0.517300
     23 H1          -0.3670     0.0400    -1.0190 ha         1 9E2       0.167000
     24 H2           5.9390    -0.5050     0.0470 h1         1 9E2       0.101200
     25 H3           6.0830     0.9170     1.0900 h1         1 9E2       0.101200
     26 H4          -0.5520     0.0050     3.3320 ha         1 9E2       0.167000
     27 H5           1.9120    -0.0560     3.3430 ha         1 9E2       0.174000
     28 H6          -2.4530    -2.0800     1.8910 hn         1 9E2       0.491467
     29 H7          -3.9330    -1.6140     1.3790 hn         1 9E2       0.491467
     30 H8           3.9700    -0.4950     1.9260 hn         1 9E2       0.342500
     31 H9           6.1770    -1.2350    -1.8850 hc         1 9E2       0.062367
     32 H10          6.7760    -0.7910    -3.4890 hc         1 9E2       0.062367
     33 H11          5.0610    -0.5980    -3.1010 hc         1 9E2       0.062367
     34 H12          1.9230    -0.0660    -0.9360 ha         1 9E2       0.174000
     35 Cl1          7.1980     1.8320    -4.6560 cl         1 9E2      -0.018400
     36 H43         -2.7830    -1.9720     0.2860 hn         1 9E2       0.491467
     37 C1           6.0690    -0.5390    -2.7080 c3         1 9E2      -0.030800
@<TRIPOS>BOND
     1    14    13 1
     2    13    15 1
     3    13    12 1
     4     9    12 2
     5     9    16 1
     6    12    11 1
     7    16     2 1
     8    16     8 1
     9     2     6 1
    10    11     8 2
    11    11    35 1
    12     8    37 1
    13     6    10 1
    14     6    17 2
    15    10     5 1
    16     5     4 ar
    17     5    18 ar
    18     4     3 ar
    19    18     1 ar
    20     3    19 ar
    21     1    19 ar
    22    19    20 1
    23     7    20 1
    24    21    20 2
    25    20    22 2
    26     1    23 1
    27     2    24 1
    28     2    25 1
    29     3    26 1
    30     4    27 1
    31     7    28 1
    32     7    29 1
    33    10    30 1
    34    37    31 1
    35    37    32 1
    36    37    33 1
    37    18    34 1
    38    36     7 1
@<TRIPOS>SUBSTRUCTURE
     1 9E2         1 TEMP              0 ****  ****    0 ROOT
