@<TRIPOS>MOLECULE
molecule
   28    30     1     0     0
SMALL
bcc


@<TRIPOS>ATOM
      1 C10          0.0000     0.0000     0.0000 ca         1 9E3      -0.100000
      2 C15          1.1700    -3.3900     3.7330 cc         1 9E3       0.535500
      3 C17         -0.0550    -2.0340     2.5820 cd         1 9E3       0.419400
      4 C01          3.5010    -0.0000     1.1590 ca         1 9E3      -0.078000
      5 C02          4.1810    -0.0000    -0.0550 ca         1 9E3      -0.171000
      6 C03          3.5050     0.0000    -1.2410 ca         1 9E3       0.097800
      7 C04          2.0940    -0.0000    -1.2400 ca         1 9E3       0.397600
      8 C05          1.4080     0.0000     0.0000 ca         1 9E3      -0.123300
      9 C06          2.1390     0.0000     1.1990 ca         1 9E3      -0.124300
     10 C08          0.0920     0.0000    -2.3870 ca         1 9E3       0.427200
     11 C09         -0.6450     0.0010    -1.2040 ca         1 9E3      -0.236300
     12 C12          1.4200    -0.0010     2.5230 c3         1 9E3       0.095600
     13 C14          1.8600    -2.2370     3.6250 cd         1 9E3      -0.298600
     14 F18          1.5780    -4.5030     4.3820 f          1 9E3      -0.210200
     15 N07          1.4030    -0.0000    -2.3830 nb         1 9E3      -0.651000
     16 N13          1.0810    -1.3770     2.8950 na         1 9E3      -0.179900
     17 N16          0.0040    -3.2370     3.0860 nc         1 9E3      -0.714000
     18 O11          4.1860     0.0010    -2.4160 oh         1 9E3      -0.498100
     19 H101        -0.5570     0.0010     0.9290 ha         1 9E3       0.135000
     20 H171        -0.8800    -1.6300     2.0080 h5         1 9E3       0.069100
     21 H011         4.0620    -0.0010     2.0860 ha         1 9E3       0.135000
     22 H021         5.2650    -0.0010    -0.0600 ha         1 9E3       0.148000
     23 H081        -0.4330     0.0010    -3.3350 h4         1 9E3       0.029100
     24 H091        -1.7270     0.0020    -1.2390 ha         1 9E3       0.142000
     25 H121         0.5120     0.5850     2.4400 h1         1 9E3       0.072700
     26 H122         2.0610     0.4320     3.2820 h1         1 9E3       0.072700
     27 H141         2.8410    -2.0310     4.0370 h4         1 9E3       0.184000
     28 H111         4.5500    -0.8560    -2.5690 ho         1 9E3       0.427000
@<TRIPOS>BOND
     1    14     2 1
     2     2    13 2
     3     2    17 1
     4    13    16 1
     5    17     3 2
     6    16     3 1
     7    16    12 1
     8     1    11 ar
     9     1     8 ar
    10    12     9 1
    11    11    10 ar
    12     8     9 ar
    13     8     7 ar
    14    10    15 ar
    15     9     4 ar
    16     7    15 ar
    17     7     6 ar
    18     4     5 ar
    19     6     5 ar
    20     6    18 1
    21     1    19 1
    22     3    20 1
    23     4    21 1
    24     5    22 1
    25    10    23 1
    26    11    24 1
    27    12    25 1
    28    12    26 1
    29    13    27 1
    30    18    28 1
@<TRIPOS>SUBSTRUCTURE
     1 9E3         1 TEMP              0 ****  ****    0 ROOT
