@<TRIPOS>MOLECULE
molecule
   51    53     1     0     0
SMALL
bcc


@<TRIPOS>ATOM
      1 N3           0.0000     0.0000     0.0000 nc         1 9E4      -0.350000
      2 C4           1.7320     0.0000     1.2280 cc         1 9E4       0.355400
      3 N2           1.2860     0.0000     0.0000 nd         1 9E4      -0.368000
      4 C7          -2.8670     0.1240     0.7180 ca         1 9E4      -0.241300
      5 C6          -1.8560    -0.0010     1.6690 ca         1 9E4       0.442300
      6 C9          -4.4600    -0.0090     2.4840 ca         1 9E4      -0.291300
      7 C13         -4.2220    -0.7420     7.4940 ca         1 9E4      -0.009000
      8 C20         -7.4470    -1.7110    11.0840 c3         1 9E4       0.104300
      9 C8          -4.1890     0.1220     1.1320 ca         1 9E4      -0.067000
     10 C18          0.4260    -0.2760     8.5650 c3         1 9E4       0.119700
     11 C16         -2.1210    -0.7330     9.3300 ca         1 9E4      -0.243000
     12 C19         -5.8440    -1.2320     9.3130 c          1 9E4       0.678700
     13 C1           1.2720    -1.3150     4.0220 c3         1 9E4      -0.097100
     14 C3           1.5140     1.1720     4.0220 c3         1 9E4      -0.097100
     15 N1           0.6590    -0.0010     2.0530 na         1 9E4      -0.287700
     16 C5          -0.4410     0.0000     1.2380 cd         1 9E4       0.300500
     17 C10         -3.4040    -0.1240     3.3830 ca         1 9E4       0.562200
     18 N4          -2.1510    -0.1190     2.9580 nb         1 9E4      -0.709000
     19 C11         -2.6540    -0.2420     5.6320 c          1 9E4       0.680700
     20 O1          -1.5190    -0.0270     5.2550 o          1 9E4      -0.542100
     21 C12         -2.9220    -0.4970     7.0600 ca         1 9E4      -0.197600
     22 C14         -4.4670    -0.9760     8.8460 ca         1 9E4      -0.196600
     23 C15         -3.4080    -0.9700     9.7600 ca         1 9E4      -0.040000
     24 C17         -1.8670    -0.4920     7.9860 ca         1 9E4       0.220100
     25 O2          -0.5990    -0.2590     7.5680 os         1 9E4      -0.282900
     26 O3          -6.7640    -1.2370     8.5200 o          1 9E4      -0.611100
     27 N6          -6.0800    -1.4570    10.6210 ns         1 9E4      -0.585900
     28 H8           2.7720    -0.0000     1.5310 h5         1 9E4       0.070100
     29 H9          -2.6220     0.2250    -0.3330 ha         1 9E4       0.168000
     30 H11         -5.4840    -0.0140     2.8390 ha         1 9E4       0.139000
     31 H13         -5.0240    -0.8440     6.7730 ha         1 9E4       0.156000
     32 H22         -7.8370    -2.5940    10.5930 h1         1 9E4       0.044033
     33 H21         -8.0730    -0.8590    10.8460 h1         1 9E4       0.044033
     34 H20         -7.4410    -1.8660    12.1560 h1         1 9E4       0.044033
     35 H10         -4.9950     0.2150     0.4130 ha         1 9E4       0.145000
     36 H12         -4.6120    -0.3360     5.0650 hn         1 9E4       0.337500
     37 H18          1.3750    -0.0190     8.1100 h1         1 9E4       0.046700
     38 H16          0.1890     0.4450     9.3380 h1         1 9E4       0.046700
     39 H17          0.4900    -1.2650     9.0000 h1         1 9E4       0.046700
     40 H15         -1.3050    -0.7290    10.0430 ha         1 9E4       0.146000
     41 H2           1.3840    -1.2720     5.0990 hc         1 9E4       0.041533
     42 H1           2.2420    -1.4700     3.5640 hc         1 9E4       0.041533
     43 H3           0.6140    -2.1350     3.7600 hc         1 9E4       0.041533
     44 H4          -0.3420     0.0970     3.8870 h1         1 9E4       0.165700
     45 H6           1.2370     2.0720     3.4850 hc         1 9E4       0.041533
     46 H5           1.3690     1.3260     5.0840 hc         1 9E4       0.041533
     47 H7           2.5540     0.9420     3.8280 hc         1 9E4       0.041533
     48 H14         -3.6000    -1.1540    10.8100 ha         1 9E4       0.130000
     49 H19         -5.3190    -1.4860    11.2690 hn         1 9E4       0.312500
     50 N5          -3.6690    -0.2460     4.7450 ns         1 9E4      -0.552400
     51 C2           0.6710    -0.0020     3.5180 c3         1 9E4       0.013000
@<TRIPOS>BOND
     1    13    51 1
     2    10    25 1
     3    51    15 1
     4    51    14 1
     5     2    15 1
     6     2     3 2
     7    15    16 1
     8    25    24 1
     9    11    24 ar
    10    11    23 ar
    11     3     1 1
    12    24    21 ar
    13    16     1 2
    14    16     5 1
    15    23    22 ar
    16     5    18 ar
    17     5     4 ar
    18    18    17 ar
    19    21    19 1
    20    21     7 ar
    21    50    17 1
    22    50    19 1
    23     4     9 ar
    24    17     6 ar
    25    19    20 2
    26    27     8 1
    27    27    12 1
    28    22     7 ar
    29    22    12 1
    30     9     6 ar
    31    12    26 2
    32     2    28 1
    33     4    29 1
    34     6    30 1
    35     7    31 1
    36     8    32 1
    37     8    33 1
    38     8    34 1
    39     9    35 1
    40    50    36 1
    41    10    37 1
    42    10    38 1
    43    10    39 1
    44    11    40 1
    45    13    41 1
    46    13    42 1
    47    13    43 1
    48    51    44 1
    49    14    45 1
    50    14    46 1
    51    14    47 1
    52    23    48 1
    53    27    49 1
@<TRIPOS>SUBSTRUCTURE
     1 9E4         1 TEMP              0 ****  ****    0 ROOT
