@<TRIPOS>MOLECULE
9E4
   51    53     1     0     0
SMALL
bcc


@<TRIPOS>ATOM
      1 N3           0.0000     0.0000     0.0000 nc         1 9E4      -0.325000
      2 C4           1.7320     0.0000     1.2280 cd         1 9E4       0.192400
      3 N2           1.2860     0.0000     0.0000 nc         1 9E4      -0.343000
      4 C7          -2.8670     0.1240     0.7180 ca         1 9E4      -0.209300
      5 C6          -1.8560    -0.0010     1.6690 ca         1 9E4       0.397300
      6 C9          -4.4600    -0.0090     2.4840 ca         1 9E4      -0.267300
      7 C13         -4.2220    -0.7420     7.4940 ca         1 9E4       0.024000
      8 C20         -7.4470    -1.7110    11.0840 c3         1 9E4       0.088300
      9 C8          -4.1890     0.1220     1.1320 ca         1 9E4      -0.037000
     10 C18          0.4260    -0.2760     8.5650 c3         1 9E4       0.231700
     11 C16         -2.1210    -0.7330     9.3300 ca         1 9E4      -0.236000
     12 C19         -5.8440    -1.2320     9.3130 c          1 9E4       0.602700
     13 C1           1.2720    -1.3150     4.0220 c3         1 9E4       0.003900
     14 C3           1.5140     1.1720     4.0220 c3         1 9E4       0.003900
     15 N1           0.6590    -0.0010     2.0530 na         1 9E4       0.199300
     16 C5          -0.4410     0.0000     1.2380 cd         1 9E4       0.107500
     17 C10         -3.4040    -0.1240     3.3830 ca         1 9E4       0.367200
     18 N4          -2.1510    -0.1190     2.9580 nb         1 9E4      -0.583000
     19 C11         -2.6540    -0.2420     5.6320 c          1 9E4       0.594700
     20 O1          -1.5190    -0.0270     5.2550 o          1 9E4      -0.594100
     21 C12         -2.9220    -0.4970     7.0600 ca         1 9E4      -0.222600
     22 C14         -4.4670    -0.9760     8.8460 ca         1 9E4      -0.211600
     23 C15         -3.4080    -0.9700     9.7600 ca         1 9E4      -0.010000
     24 C17         -1.8670    -0.4920     7.9860 ca         1 9E4       0.238100
     25 O2          -0.5990    -0.2590     7.5680 os         1 9E4      -0.259900
     26 O3          -6.7640    -1.2370     8.5200 o          1 9E4      -0.653100
     27 N6          -6.0800    -1.4570    10.6210 ns         1 9E4      -0.197900
     28 H8           2.7720    -0.0000     1.5310 h5         1 9E4       0.032100
     29 H9          -2.6220     0.2250    -0.3330 ha         1 9E4       0.142000
     30 H11         -5.4840    -0.0140     2.8390 ha         1 9E4       0.117000
     31 H13         -5.0240    -0.8440     6.7730 ha         1 9E4       0.125000
     32 H22         -7.8370    -2.5940    10.5930 h1         1 9E4       0.010700
     33 H21         -8.0730    -0.8590    10.8460 h1         1 9E4       0.010700
     34 H20         -7.4410    -1.8660    12.1560 h1         1 9E4       0.010700
     35 H10         -4.9950     0.2150     0.4130 ha         1 9E4       0.111000
     36 H12         -4.6120    -0.3360     5.0650 hn         1 9E4       0.183500
     37 H18          1.3750    -0.0190     8.1100 h1         1 9E4       0.001367
     38 H16          0.1890     0.4450     9.3380 h1         1 9E4       0.001367
     39 H17          0.4900    -1.2650     9.0000 h1         1 9E4       0.001367
     40 H15         -1.3050    -0.7290    10.0430 ha         1 9E4       0.129000
     41 H2           1.3840    -1.2720     5.0990 hc         1 9E4       0.010367
     42 H1           2.2420    -1.4700     3.5640 hc         1 9E4       0.010367
     43 H3           0.6140    -2.1350     3.7600 hc         1 9E4       0.010367
     44 H4          -0.3420     0.0970     3.8870 h1         1 9E4       0.154700
     45 H6           1.2370     2.0720     3.4850 hc         1 9E4       0.010367
     46 H5           1.3690     1.3260     5.0840 hc         1 9E4       0.010367
     47 H7           2.5540     0.9420     3.8280 hc         1 9E4       0.010367
     48 H14         -3.6000    -1.1540    10.8100 ha         1 9E4       0.100000
     49 H19         -5.3190    -1.4860    11.2690 hn         1 9E4       0.174500
     50 N5          -3.6690    -0.2460     4.7450 ns         1 9E4      -0.118400
     51 C2           0.6710    -0.0020     3.5180 c3         1 9E4      -0.150000
@<TRIPOS>BOND
     1     1     3 1   
     2     1    16 2   
     3     2     3 2   
     4     2    15 1   
     5     2    28 1   
     6     4     5 ar  
     7     4     9 ar  
     8     4    29 1   
     9     5    16 1   
    10     5    18 ar  
    11     6     9 ar  
    12     6    17 ar  
    13     6    30 1   
    14     7    21 ar  
    15     7    22 ar  
    16     7    31 1   
    17     8    27 1   
    18     8    32 1   
    19     8    33 1   
    20     8    34 1   
    21     9    35 1   
    22    10    25 1   
    23    10    37 1   
    24    10    38 1   
    25    10    39 1   
    26    11    23 ar  
    27    11    24 ar  
    28    11    40 1   
    29    12    22 1   
    30    12    26 2   
    31    12    27 1   
    32    13    41 1   
    33    13    42 1   
    34    13    43 1   
    35    13    51 1   
    36    14    45 1   
    37    14    46 1   
    38    14    47 1   
    39    14    51 1   
    40    15    16 1   
    41    15    51 1   
    42    17    18 ar  
    43    17    50 1   
    44    19    20 2   
    45    19    21 1   
    46    19    50 1   
    47    21    24 ar  
    48    22    23 ar  
    49    23    48 1   
    50    24    25 1   
    51    27    49 1   
    52    36    50 1   
    53    44    51 1   
@<TRIPOS>SUBSTRUCTURE
     1 9E4         1 TEMP              0 ****  ****    0 ROOT
