@<TRIPOS>MOLECULE
molecule
   11    11     1     0     0
SMALL
bcc


@<TRIPOS>ATOM
      1 C1           0.0000     0.0000     0.0000 c          1 9E6       0.899200
      2 S1           3.5510     0.0000     1.7490 ss         1 9E6      -0.216800
      3 C2           1.4200     0.0000     0.3840 cc         1 9E6      -0.129600
      4 C4           2.5030     0.0000    -0.5720 cd         1 9E6      -0.093000
      5 C5           3.7020     0.0000     0.0000 cc         1 9E6       0.031300
      6 C7           1.8480     0.0000     1.6750 cd         1 9E6      -0.064100
      7 O8          -0.3120    -0.0050    -1.1750 o          1 9E6      -0.833800
      8 O9          -0.9550    -0.0010     0.9520 o          1 9E6      -0.833800
      9 Cl1          5.2090     0.0000    -0.8620 cl         1 9E6      -0.117400
     10 H1           2.3530     0.0000    -1.6450 ha         1 9E6       0.169000
     11 H2           1.1960     0.0000     2.5400 h4         1 9E6       0.190000
@<TRIPOS>BOND
     1     9     5 1
     2     5     4 2
     3     5     2 1
     4     4     3 1
     5     2     6 1
     6     3     6 2
     7     3     1 1
     8     7     1 1
     9     1     8 1
    10     4    10 1
    11     6    11 1
@<TRIPOS>SUBSTRUCTURE
     1 9E6         1 TEMP              0 ****  ****    0 ROOT
