@<TRIPOS>MOLECULE
molecule
   40    41     1     0     0
SMALL
bcc


@<TRIPOS>ATOM
      1 N1           0.0000     0.0000     0.0000 nz         1 9E8      -0.806500
      2 C1           2.1770     1.5430    -0.6720 ca         1 9E8      -0.345500
      3 C2           2.3820     2.6260     0.1610 ca         1 9E8      -0.023000
      4 C3           2.7900     3.8370    -0.3660 ca         1 9E8      -0.128000
      5 C4           2.9940     3.9640    -1.7270 ca         1 9E8       0.023700
      6 C5           2.7900     2.8800    -2.5610 ca         1 9E8      -0.128000
      7 C6           2.3870     1.6680    -2.0330 ca         1 9E8      -0.023000
      8 C7           4.9680     5.3410    -2.3280 c3         1 9E8       0.141000
      9 C            3.4390     5.2840    -2.3030 c3         1 9E8      -0.077100
     10 C8           6.7130     6.8990    -3.0060 c          1 9E8       0.785100
     11 C10         10.7670     7.7290    -3.8120 ca         1 9E8      -0.104500
     12 C11          9.4250     7.4070    -3.7770 ca         1 9E8      -0.134500
     13 C12          8.4780     8.4000    -3.5620 ca         1 9E8       0.061600
     14 C13         11.1690     9.0410    -3.6320 ca         1 9E8       0.017400
     15 C14          8.8840     9.7150    -3.3830 ca         1 9E8      -0.134500
     16 C15         10.2280    10.0340    -3.4240 ca         1 9E8      -0.104500
     17 O8           7.5400     6.0810    -2.6500 o          1 9E8      -0.640100
     18 N8           7.1110     8.0790    -3.5210 ns         1 9E8      -0.487100
     19 Cl1         12.8580     9.4430    -3.6700 cl         1 9E8      -0.100400
     20 N7           5.3990     6.6240    -2.8870 ns         1 9E8      -0.610900
     21 S            1.6550     0.0000     0.0000 sy         1 9E8       1.223200
     22 O1           2.0570     0.0000     1.3640 o          1 9E8      -0.515800
     23 O2           2.0570    -0.9990    -0.9280 o          1 9E8      -0.515800
     24 H1          -0.3340     0.1070    -0.9380 hn         1 9E8       0.491800
     25 H2          -0.3340    -0.8650     0.3760 hn         1 9E8       0.491800
     26 H3           2.2200     2.5270     1.2280 ha         1 9E8       0.157000
     27 H4           2.9500     4.6860     0.2880 ha         1 9E8       0.168000
     28 H5           2.9520     2.9790    -3.6280 ha         1 9E8       0.168000
     29 H6           2.2270     0.8190    -2.6860 ha         1 9E8       0.157000
     30 H7           5.3490     4.5330    -2.9410 h1         1 9E8       0.061700
     31 H8           5.3490     5.2400    -1.3190 h1         1 9E8       0.061700
     32 H9           3.0580     5.3850    -3.3120 hc         1 9E8       0.070200
     33 H10          3.0580     6.0920    -1.6900 hc         1 9E8       0.070200
     34 H13          8.1480    10.4920    -3.2180 ha         1 9E8       0.153000
     35 H14         10.5450    11.0600    -3.2840 ha         1 9E8       0.150500
     36 H15          6.4360     8.7120    -3.9010 hn         1 9E8       0.320500
     37 H16          4.7180     7.2990    -3.1740 hn         1 9E8       0.310500
     38 H11         11.5060     6.9550    -3.9770 ha         1 9E8       0.150500
     39 H131        -0.3340     0.7630     0.5550 hn         1 9E8       0.491800
     40 H12          9.1110     6.3800    -3.9180 ha         1 9E8       0.153000
@<TRIPOS>BOND
     1    20     8 1
     2    20    10 1
     3     8     9 1
     4    12    11 ar
     5    12    13 ar
     6    18    10 1
     7    18    13 1
     8    10    17 2
     9    11    14 ar
    10    13    15 ar
    11     9     5 1
    12    14    19 1
    13    14    16 ar
    14    15    16 ar
    15     5     4 ar
    16     5     6 ar
    17     4     3 ar
    18     6     7 ar
    19     3     2 ar
    20     7     2 ar
    21     2    21 1
    22     1    21 1
    23    23    21 2
    24    21    22 2
    25     1    24 1
    26     1    25 1
    27     3    26 1
    28     4    27 1
    29     6    28 1
    30     7    29 1
    31     8    30 1
    32     8    31 1
    33     9    32 1
    34     9    33 1
    35    11    38 1
    36    12    40 1
    37    15    34 1
    38    16    35 1
    39    18    36 1
    40    20    37 1
    41    39     1 1
@<TRIPOS>SUBSTRUCTURE
     1 9E8         1 TEMP              0 ****  ****    0 ROOT
