@<TRIPOS>MOLECULE
molecule
   11    11     1     0     0
SMALL
bcc


@<TRIPOS>ATOM
      1 C1           0.0000     0.0000     0.0000 c          1 9E9       0.900200
      2 C2           1.4620     0.0000     0.0000 cc         1 9E9      -0.004700
      3 C5           3.8990    -0.0110    -0.4810 cc         1 9E9      -0.024700
      4 C6           3.5980    -0.0010     0.8260 cd         1 9E9      -0.154000
      5 C7           2.2560     0.0000     1.1150 cd         1 9E9      -0.181000
      6 O8          -0.6090     0.0060     1.0540 o          1 9E9      -0.823300
      7 O9          -0.6750    -0.0010    -1.1680 o          1 9E9      -0.823300
      8 S1           2.4820    -0.0080    -1.4330 ss         1 9E9      -0.054800
      9 Cl1          5.5130    -0.0190    -1.1200 cl         1 9E9      -0.123400
     10 H6           4.3590    -0.0010     1.5970 ha         1 9E9       0.128000
     11 H7           1.8640     0.0080     2.1250 ha         1 9E9       0.161000
@<TRIPOS>BOND
     1     9     3 1
     2     3     8 1
     3     3     4 2
     4     8     2 1
     5     4     5 1
     6     2     5 2
     7     2     1 1
     8     6     1 1
     9     1     7 1
    10     4    10 1
    11     5    11 1
@<TRIPOS>SUBSTRUCTURE
     1 9E9         1 TEMP              0 ****  ****    0 ROOT
