@<TRIPOS>MOLECULE
molecule
  102   109     1     0     0
SMALL
bcc


@<TRIPOS>ATOM
      1 C4           0.0000     0.0000     0.0000 ca         1 9EA      -0.077000
      2 C5         -10.0490    -1.7340     8.4770 ca         1 9EA      -0.289300
      3 C6           3.4650     0.0010     1.2560 ca         1 9EA      -0.138000
      4 C7           2.0310    -0.0050     3.6550 ca         1 9EA      -0.077000
      5 C8          -5.2330     2.5020     6.6010 ca         1 9EA      -0.087000
      6 C10         -6.2000     2.9480     8.7440 ca         1 9EA      -0.126000
      7 C13         -0.6150     0.2650    11.7870 ca         1 9EA      -0.126500
      8 C15         -1.9960     2.5330    12.5880 ca         1 9EA      -0.167500
      9 C17        -10.1750    -3.0670     8.1270 ca         1 9EA       0.408200
     10 C20          1.3330     0.0000     2.4360 ca         1 9EA      -0.061000
     11 C21         -5.3320     1.1230     6.8380 ca         1 9EA      -0.076800
     12 C22         -6.3100     1.5890     9.0070 ca         1 9EA      -0.013000
     13 C24         -7.7100    -2.0950     8.7410 ca         1 9EA      -0.215600
     14 C26         -5.8760     0.6610     8.0500 ca         1 9EA      -0.049200
     15 C28         -2.6840     1.4440    12.0720 ca         1 9EA       0.135100
     16 C1           4.1070     0.0020     2.4560 ca         1 9EA      -0.117000
     17 C2           3.3920     0.0020     3.6520 ca         1 9EA      -0.157000
     18 C3          -5.6630     3.3910     7.5440 ca         1 9EA      -0.209000
     19 C9           1.3620     0.0000     0.0000 ca         1 9EA      -0.179000
     20 C11         -8.7960    -1.2350     8.7910 ca         1 9EA      -0.102000
     21 C12         -0.6200     2.4890    12.7030 ca         1 9EA      -0.126500
     22 C14         -0.7180    -0.0000     1.1930 ca         1 9EA      -0.247000
     23 C16         -1.9920     0.3110    11.6720 ca         1 9EA      -0.167500
     24 C18         -7.9140    -3.4170     8.3930 ca         1 9EA       0.477200
     25 C19          2.0600     0.0000     1.2190 ca         1 9EA       0.000000
     26 C23         -6.8850     1.1220    10.2930 cc         1 9EA      -0.223300
     27 C25         -4.9850    -0.0200     6.0790 cc         1 9EA      -0.160400
     28 C27          0.0740     1.3550    12.3030 ca         1 9EA       0.051600
     29 C29         -0.0750    -0.0060     2.3990 ca         1 9EA       0.179100
     30 C30         -5.3090    -1.1180     6.8130 cd         1 9EA      -0.049300
     31 C31         -6.1710     0.5630    11.3700 cc         1 9EA       0.345600
     32 C32         -8.2020     1.1620    10.6500 cd         1 9EA      -0.067600
     33 C33         -5.1130    -2.5110     6.3920 c          1 9EA       0.906800
     34 C34          4.9420     1.3700    14.5470 c          1 9EA       0.662100
     35 C35          1.8920     0.1470    13.2130 c3         1 9EA       0.146800
     36 C36          1.9900     2.5600    12.9860 c3         1 9EA       0.146800
     37 C37          3.4200     0.0310    13.1660 c3         1 9EA       0.104500
     38 C38          3.5210     2.5430    12.9300 c3         1 9EA       0.104500
     39 C39         -9.3370     1.6880     9.8080 c3         1 9EA      -0.029800
     40 C40          5.5080     0.0950    15.1180 c3         1 9EA      -0.171100
     41 C42         -4.3670    -0.0200     4.7040 c3         1 9EA       0.007800
     42 C44         -4.6820     0.3320    11.4190 c3         1 9EA       0.122100
     43 C45         -2.8420    -0.0140     4.8310 c3         1 9EA      -0.071400
     44 C46         -2.2150    -0.0130     3.4350 c3         1 9EA       0.132400
     45 N47         -9.1200    -3.8580     8.0950 nb         1 9EA      -0.708000
     46 N48         -7.0230     0.2790    12.3190 nd         1 9EA      -0.506800
     47 N49         -5.8520    -0.7120     8.0160 na         1 9EA      -0.033400
     48 N50         -8.3050     0.6460    11.8910 na         1 9EA       0.067400
     49 N51          1.4680     1.3100    12.4200 nh         1 9EA      -0.592000
     50 N52          3.9980     1.3170    13.5860 n          1 9EA      -0.495800
     51 O53         -5.4750    -3.5190     7.2120 o          1 9EA      -0.828300
     52 O54          5.3360     2.4420    14.9520 o          1 9EA      -0.619100
     53 O55         -4.6240    -2.7560     5.3070 o          1 9EA      -0.828300
     54 O56         -4.0390     1.4880    11.9590 os         1 9EA      -0.320900
     55 O57         -0.7900    -0.0060     3.5540 os         1 9EA      -0.324900
     56 H1          -0.5330     0.0040    -0.9430 ha         1 9EA       0.121000
     57 H2         -10.9200    -1.0900     8.5040 ha         1 9EA       0.113000
     58 H3           4.0340     0.0020     0.3340 ha         1 9EA       0.125000
     59 H4           1.4890    -0.0050     4.5930 ha         1 9EA       0.152000
     60 H5          -5.0120     3.0960     5.7220 ha         1 9EA       0.119000
     61 H6          -6.3170     3.8470     9.3370 ha         1 9EA       0.124000
     62 H7          -0.0750    -0.6200    11.4750 ha         1 9EA       0.135000
     63 H8          -2.5370     3.4180    12.9000 ha         1 9EA       0.144500
     64 H9         -11.1510    -3.4650     7.8780 h4         1 9EA       0.001100
     65 H10          5.1900     0.0070     2.4820 ha         1 9EA       0.118000
     66 H11          3.9280     0.0020     4.5940 ha         1 9EA       0.124000
     67 H12         -5.5580     4.4540     7.3680 ha         1 9EA       0.109000
     68 H13          1.9050     0.0000    -0.9370 ha         1 9EA       0.123000
     69 H14         -8.6660    -0.1940     9.0650 ha         1 9EA       0.144000
     70 H15         -0.0830     3.3390    13.1060 ha         1 9EA       0.135000
     71 H16         -1.8010    -0.0000     1.1640 ha         1 9EA       0.142000
     72 H17         -2.5300    -0.5390    11.2690 ha         1 9EA       0.144500
     73 H18         -7.0710    -4.0960     8.3530 h4         1 9EA       0.086100
     74 H19          1.5720     0.2760    14.2400 h1         1 9EA       0.049950
     75 H20          1.4500    -0.7510    12.8010 h1         1 9EA       0.049950
     76 H21          1.6180     3.3990    12.4100 h1         1 9EA       0.049950
     77 H22          1.6680     2.6520    14.0160 h1         1 9EA       0.049950
     78 H23          3.7450    -0.7510    13.8400 h1         1 9EA       0.061450
     79 H24          3.7350    -0.1960    12.1550 h1         1 9EA       0.061450
     80 H25          3.9140     3.4090    13.4490 h1         1 9EA       0.061450
     81 H26          3.8470     2.5520    11.8960 h1         1 9EA       0.061450
     82 H27         -9.5480     2.7130    10.0880 hc         1 9EA       0.054033
     83 H28         -9.0590     1.6500     8.7620 hc         1 9EA       0.054033
     84 H29        -10.2180     1.0800     9.9700 hc         1 9EA       0.054033
     85 H30          6.3520     0.3280    15.7560 hc         1 9EA       0.058700
     86 H31          5.8320    -0.5500    14.3100 hc         1 9EA       0.058700
     87 H32          4.7450    -0.4100    15.6990 hc         1 9EA       0.058700
     88 H33         -9.3080     0.1400    13.6560 h1         1 9EA       0.050700
     89 H34        -10.1920    -0.2140    12.1660 h1         1 9EA       0.050700
     90 H35        -10.0420     1.4560    12.7300 h1         1 9EA       0.050700
     91 H36         -4.6880     0.8630     4.1640 hc         1 9EA       0.053700
     92 H37         -4.6810    -0.9060     4.1670 hc         1 9EA       0.053700
     93 H38         -6.3570    -1.0580    10.0170 h1         1 9EA       0.080200
     94 H39         -5.6550    -2.4440     9.1730 h1         1 9EA       0.080200
     95 H40         -4.4710    -0.5260    12.0470 h1         1 9EA       0.059200
     96 H41         -4.3120     0.1460    10.4180 h1         1 9EA       0.059200
     97 H42         -2.5210    -0.8960     5.3700 hc         1 9EA       0.060200
     98 H43         -2.5280     0.8730     5.3680 hc         1 9EA       0.060200
     99 H44         -2.5360     0.8690     2.8950 h1         1 9EA       0.036200
    100 H45         -2.5280    -0.9000     2.8980 h1         1 9EA       0.036200
    101 C43         -6.3270    -1.6010     9.0800 c3         1 9EA       0.096600
    102 C41         -9.5420     0.4970    12.6610 c3         1 9EA       0.067600
@<TRIPOS>BOND
     1    16     3 ar
     2    16    17 ar
     3     3    25 ar
     4    17     4 ar
     5    25    19 ar
     6    25    10 ar
     7     4    10 ar
     8    19     1 ar
     9    10    29 ar
    10     1    22 ar
    11    29    22 ar
    12    29    55 1
    13    55    44 1
    14    44    43 1
    15    43    41 1
    16    41    27 1
    17     5    11 ar
    18     5    18 ar
    19    27    11 1
    20    27    30 2
    21    53    33 1
    22    11    14 ar
    23    18     6 ar
    24    33    30 1
    25    33    51 1
    26    30    47 1
    27    14    47 1
    28    14    12 ar
    29     6    12 ar
    30    47   101 1
    31    12    26 1
    32    20     2 ar
    33    20    13 ar
    34     2     9 ar
    35   101    13 1
    36    52    34 2
    37    13    24 ar
    38    34    40 1
    39    34    50 1
    40    36    38 1
    41    36    49 1
    42    38    50 1
    43    26    32 2
    44    26    31 1
    45    50    37 1
    46     9    45 ar
    47     7    23 ar
    48     7    28 ar
    49    23    15 ar
    50    39    32 1
    51    42    31 1
    52    42    54 1
    53    32    48 1
    54    24    45 ar
    55    49    35 1
    56    49    28 1
    57    31    46 2
    58    35    37 1
    59    28    21 ar
    60    15    54 1
    61    15     8 ar
    62    21     8 ar
    63    48    46 1
    64    48   102 1
    65     1    56 1
    66     2    57 1
    67     3    58 1
    68     4    59 1
    69     5    60 1
    70     6    61 1
    71     7    62 1
    72     8    63 1
    73     9    64 1
    74    16    65 1
    75    17    66 1
    76    18    67 1
    77    19    68 1
    78    20    69 1
    79    21    70 1
    80    22    71 1
    81    23    72 1
    82    24    73 1
    83    35    74 1
    84    35    75 1
    85    36    76 1
    86    36    77 1
    87    37    78 1
    88    37    79 1
    89    38    80 1
    90    38    81 1
    91    39    82 1
    92    39    83 1
    93    39    84 1
    94    40    85 1
    95    40    86 1
    96    40    87 1
    97   102    88 1
    98   102    89 1
    99   102    90 1
   100    41    91 1
   101    41    92 1
   102   101    93 1
   103   101    94 1
   104    42    95 1
   105    42    96 1
   106    43    97 1
   107    43    98 1
   108    44    99 1
   109    44   100 1
@<TRIPOS>SUBSTRUCTURE
     1 9EA         1 TEMP              0 ****  ****    0 ROOT
