@<TRIPOS>MOLECULE
molecule
   39    40     1     0     0
SMALL
bcc


@<TRIPOS>ATOM
      1 C1           0.0000     0.0000     0.0000 ca         1 9EB      -0.345500
      2 C2           1.3790     0.0000     0.0000 ca         1 9EB       0.046000
      3 C3           2.0740     0.0000     1.2110 ca         1 9EB      -0.135600
      4 C4           1.3680    -0.0010     2.4150 ca         1 9EB      -0.014000
      5 C5          -0.0120    -0.0010     2.4020 ca         1 9EB      -0.118000
      6 C6          -0.6960    -0.0000     1.1980 ca         1 9EB       0.094400
      7 C9           5.6850    -0.0020     2.3940 c3         1 9EB       0.173000
      8 C10          6.1810     0.5980     3.6840 ca         1 9EB      -0.131300
      9 C11          7.4390     1.1810     3.7400 ca         1 9EB       0.146100
     10 C12          7.8940     1.7320     4.9290 ca         1 9EB      -0.195000
     11 C13          5.3830     0.5730     4.8110 ca         1 9EB      -0.107000
     12 C14          7.0930     1.7010     6.0550 ca         1 9EB      -0.082000
     13 C15          5.8380     1.1230     5.9950 ca         1 9EB      -0.149000
     14 O1          -1.8580     1.0330    -1.4210 o          1 9EB      -0.507300
     15 O2           0.1000    -0.0280    -2.5540 o          1 9EB      -0.507300
     16 C16          6.1950    -1.4380     2.2690 c3         1 9EB      -0.102100
     17 Cl6         -2.4310     0.0060     1.1910 cl         1 9EB      -0.075400
     18 S           -0.8800     0.0080    -1.5270 sy         1 9EB       1.243200
     19 N1          -1.7100    -1.4220    -1.6220 nz         1 9EB      -0.810500
     20 C            3.5520    -0.0010     1.2170 c          1 9EB       0.662700
     21 O7           4.1640     0.0000     0.1670 o          1 9EB      -0.581100
     22 N8           4.2210    -0.0010     2.3870 ns         1 9EB      -0.566900
     23 O11          8.2260     1.2120     2.6320 oh         1 9EB      -0.501100
     24 H1           1.9210     0.0620    -0.9360 ha         1 9EB       0.201000
     25 H2           1.9010    -0.0590     3.3560 ha         1 9EB       0.164000
     26 H3          -0.5610    -0.0040     3.3360 ha         1 9EB       0.178000
     27 H4           6.0500     0.5840     1.5590 h1         1 9EB       0.102700
     28 H5           8.8760     2.1870     4.9760 ha         1 9EB       0.144000
     29 H6           4.3990     0.1210     4.7670 ha         1 9EB       0.112000
     30 H7           7.4470     2.1310     6.9840 ha         1 9EB       0.144000
     31 H8           5.2110     1.1010     6.8780 ha         1 9EB       0.137000
     32 H9           7.2240    -1.4860     2.6050 hc         1 9EB       0.050367
     33 H10          6.1390    -1.7530     1.2340 hc         1 9EB       0.050367
     34 H11          5.5850    -2.0930     2.8800 hc         1 9EB       0.050367
     35 H12         -2.5410    -1.3620    -1.0670 hn         1 9EB       0.494467
     36 H13         -1.1340    -2.1650    -1.2810 hn         1 9EB       0.494467
     37 H14          3.7170     0.0040     3.2520 hn         1 9EB       0.314500
     38 H15          8.7860     1.9690     2.6640 ho         1 9EB       0.432000
     39 H131        -1.9580    -1.6010    -2.5740 hn         1 9EB       0.494467
@<TRIPOS>BOND
     1    13    11 ar
     2    13    12 ar
     3    11     8 ar
     4    12    10 ar
     5     8     7 1
     6     8     9 ar
     7    16     7 1
     8     7    22 1
     9    21    20 2
    10    10     9 ar
    11     9    23 1
    12    22    20 1
    13    20     3 1
    14     3     4 ar
    15     3     2 ar
    16     4     5 ar
    17     2     1 ar
    18     5     6 ar
    19     1     6 ar
    20     1    18 1
    21    19    18 1
    22     6    17 1
    23    15    18 2
    24    18    14 2
    25     2    24 1
    26     4    25 1
    27     5    26 1
    28     7    27 1
    29    10    28 1
    30    11    29 1
    31    12    30 1
    32    13    31 1
    33    16    32 1
    34    16    33 1
    35    16    34 1
    36    19    35 1
    37    19    36 1
    38    22    37 1
    39    23    38 1
    40    39    19 1
@<TRIPOS>SUBSTRUCTURE
     1 9EB         1 TEMP              0 ****  ****    0 ROOT
