@<TRIPOS>MOLECULE
9EC
   49    53     1     0     0
SMALL
bcc


@<TRIPOS>ATOM
      1 C10          0.0000     0.0000     0.0000 ca         1 9EC       0.011000
      2 C11         -0.7430     0.0080    -1.2760 cc         1 9EC       0.026900
      3 C12         -1.7500    -0.8310    -1.5970 cd         1 9EC      -0.091000
      4 C13         -2.2900    -0.6310    -2.8500 cd         1 9EC      -0.120000
      5 C14         -1.7360     0.3610    -3.5530 cc         1 9EC       0.019900
      6 C02          3.3580     0.4900    -1.2620 c          1 9EC       0.644100
      7 C04          1.4010     0.0000     0.0000 ca         1 9EC      -0.115400
      8 C05          2.0900     0.0000     1.2030 ca         1 9EC      -0.090000
      9 C06          1.3960    -0.0010     2.3990 ca         1 9EC      -0.104000
     10 C07          0.0100    -0.0020     2.4040 ca         1 9EC       0.116900
     11 C09         -0.6900    -0.0010     1.2130 ca         1 9EC      -0.098000
     12 C17          5.4190     0.9340    -2.3800 c3         1 9EC       0.191100
     13 C18          6.4050    -0.1460    -1.9240 c3         1 9EC      -0.065900
     14 C19          6.4510    -1.2580    -2.9830 c3         1 9EC       0.021000
     15 C20          4.9920    -1.6270    -3.3450 cx         1 9EC       0.055600
     16 C21          4.6150    -0.6670    -4.4920 cx         1 9EC       0.055600
     17 C26          5.8720     0.2060    -4.7070 c3         1 9EC       0.021000
     18 C27          5.7920     1.4130    -3.7860 c3         1 9EC      -0.065900
     19 F08         -0.6580    -0.0030     3.5780 f          1 9EC      -0.116900
     20 N03          2.1030     0.0010    -1.2110 ns         1 9EC       0.021900
     21 N23          6.9950    -0.6570    -4.2300 n4         1 9EC       0.014200
     22 O01          3.8410     1.0270    -0.2850 o          1 9EC      -0.626000
     23 O16          4.0750     0.3850    -2.3970 os         1 9EC      -0.441900
     24 O22          4.7260    -2.0800    -4.6730 op         1 9EC      -0.304600
     25 S15         -0.4570     1.1150    -2.6120 ss         1 9EC      -0.287800
     26 H37         -2.1060    -1.6010    -0.9230 ha         1 9EC       0.132000
     27 H38         -3.1030    -1.2340    -3.2360 ha         1 9EC       0.132000
     28 H39         -2.0330     0.6580    -4.5520 h4         1 9EC       0.156000
     29 H34          3.1740     0.0000     1.2060 ha         1 9EC       0.151000
     30 H35          1.9390    -0.0020     3.3370 ha         1 9EC       0.128000
     31 H36         -1.7730    -0.0020     1.2210 ha         1 9EC       0.135000
     32 H28          5.4580     1.7710    -1.6920 h1         1 9EC       0.084700
     33 H40          7.3910     0.2870    -1.8090 hc         1 9EC       0.069950
     34 H41          6.0780    -0.5600    -0.9770 hc         1 9EC       0.069950
     35 H29          7.0240    -2.1170    -2.6570 hx         1 9EC       0.097700
     36 H30          4.2170    -1.6590    -2.5890 h1         1 9EC       0.133700
     37 H31          3.6460    -0.2150    -4.3180 h1         1 9EC       0.133700
     38 H43          7.1120    -2.6760    -4.7810 hx         1 9EC       0.079200
     39 H42          8.3650    -1.6390    -5.4760 hx         1 9EC       0.079200
     40 H44          6.7100    -1.5650    -6.0980 hx         1 9EC       0.079200
     41 H45          7.9230     0.9230    -3.2140 hx         1 9EC       0.079200
     42 H46          8.9610    -0.4750    -3.5300 hx         1 9EC       0.079200
     43 H47          8.5320     0.6250    -4.8480 hx         1 9EC       0.079200
     44 H32          5.9950     0.4930    -5.7450 hx         1 9EC       0.097700
     45 H49          6.7520     1.9130    -3.7580 hc         1 9EC       0.069950
     46 H48          5.0350     2.0980    -4.1490 hc         1 9EC       0.069950
     47 H33          1.6890    -0.4010    -2.0290 hn         1 9EC       0.182500
     48 C24          7.3170    -1.7030    -5.2110 c3         1 9EC       0.006600
     49 C25          8.1810     0.1570    -3.9360 c3         1 9EC       0.006600
@<TRIPOS>BOND
     1     1     2 1   
     2     1     7 ar  
     3     1    11 ar  
     4     2     3 2   
     5     2    25 1   
     6     3     4 1   
     7     3    26 1   
     8     4     5 2   
     9     4    27 1   
    10     5    25 1   
    11     5    28 1   
    12     6    20 1   
    13     6    22 2   
    14     6    23 1   
    15     7     8 ar  
    16     7    20 1   
    17     8     9 ar  
    18     8    29 1   
    19     9    10 ar  
    20     9    30 1   
    21    10    11 ar  
    22    10    19 1   
    23    11    31 1   
    24    12    13 1   
    25    12    18 1   
    26    12    23 1   
    27    12    32 1   
    28    13    14 1   
    29    13    33 1   
    30    13    34 1   
    31    14    15 1   
    32    14    21 1   
    33    14    35 1   
    34    15    16 1   
    35    15    24 1   
    36    15    36 1   
    37    16    17 1   
    38    16    24 1   
    39    16    37 1   
    40    17    18 1   
    41    17    21 1   
    42    17    44 1   
    43    18    45 1   
    44    18    46 1   
    45    20    47 1   
    46    21    48 1   
    47    21    49 1   
    48    38    48 1   
    49    39    48 1   
    50    40    48 1   
    51    41    49 1   
    52    42    49 1   
    53    43    49 1   
@<TRIPOS>SUBSTRUCTURE
     1 9EC         1 TEMP              0 ****  ****    0 ROOT
