@<TRIPOS>MOLECULE
molecule
   24    23     1     0     0
SMALL
bcc


@<TRIPOS>ATOM
      1 NAG          0.0000     0.0000     0.0000 nz         1 9EE      -0.684900
      2 CAB          1.3480     0.0000     0.0000 c          1 9EE       0.482600
      3 OAH          1.9550     0.0000     1.0500 o          1 9EE      -0.382600
      4 CAA          2.1010    -0.0000    -1.3060 c3         1 9EE      -0.159900
      5 CAC          3.6050     0.0000    -1.0270 c3         1 9EE      -0.073400
      6 CAD          4.3700    -0.0000    -2.3520 c3         1 9EE      -0.073400
      7 CAE          5.8740     0.0000    -2.0730 c3         1 9EE      -0.159900
      8 CAF          6.6280    -0.0000    -3.3790 c          1 9EE       0.482600
      9 OAI          6.0200    -0.0000    -4.4280 o          1 9EE      -0.382600
     10 NAJ          7.9760    -0.0000    -3.3790 nz         1 9EE      -0.684900
     11 H1          -0.3340     0.0000     0.9440 hn         1 9EE       0.486800
     12 H2          -0.3340     0.8170    -0.4720 hn         1 9EE       0.486800
     13 H3           1.8390    -0.8840    -1.8740 hc         1 9EE       0.100700
     14 H4           1.8390     0.8840    -1.8740 hc         1 9EE       0.100700
     15 H5           3.8670     0.8840    -0.4590 hc         1 9EE       0.077700
     16 H6           3.8670    -0.8840    -0.4590 hc         1 9EE       0.077700
     17 H7           4.1090    -0.8840    -2.9200 hc         1 9EE       0.077700
     18 H8           4.1090     0.8840    -2.9200 hc         1 9EE       0.077700
     19 H9           6.1360    -0.8840    -1.5050 hc         1 9EE       0.100700
     20 H10          6.1360     0.8840    -1.5050 hc         1 9EE       0.100700
     21 H11          8.3090    -0.8170    -2.9070 hn         1 9EE       0.486800
     22 H12          8.3090     0.0000    -4.3220 hn         1 9EE       0.486800
     23 HAG3        -0.3340    -0.8170    -0.4720 hn         1 9EE       0.486800
     24 HAJ3         8.3090     0.7980    -2.8750 hn         1 9EE       0.486800
@<TRIPOS>BOND
     1    10     8 1
     2     8     9 2
     3     8     7 1
     4     6     7 1
     5     6     5 1
     6     4     5 1
     7     4     2 1
     8     2     1 1
     9     2     3 2
    10     1    11 1
    11     1    12 1
    12     4    13 1
    13     4    14 1
    14     5    15 1
    15     5    16 1
    16     6    17 1
    17     6    18 1
    18     7    19 1
    19     7    20 1
    20    10    21 1
    21    10    22 1
    22    23     1 1
    23    24    10 1
@<TRIPOS>SUBSTRUCTURE
     1 9EE         1 TEMP              0 ****  ****    0 ROOT
