@<TRIPOS>MOLECULE
9EE
   24    23     1     0     0
SMALL
bcc


@<TRIPOS>ATOM
      1 NAG          0.0000     0.0000     0.0000 nz         1 9EE       0.203100
      2 CAB          1.3480     0.0000     0.0000 c          1 9EE       0.312600
      3 OAH          1.9550     0.0000     1.0500 o          1 9EE      -0.384600
      4 CAA          2.1010    -0.0000    -1.3060 c3         1 9EE      -0.087900
      5 CAC          3.6050     0.0000    -1.0270 c3         1 9EE      -0.014400
      6 CAD          4.3700    -0.0000    -2.3520 c3         1 9EE      -0.014400
      7 CAE          5.8740     0.0000    -2.0730 c3         1 9EE      -0.087900
      8 CAF          6.6280    -0.0000    -3.3790 c          1 9EE       0.312600
      9 OAI          6.0200    -0.0000    -4.4280 o          1 9EE      -0.384600
     10 NAJ          7.9760    -0.0000    -3.3790 nz         1 9EE       0.203100
     11 H1          -0.3340     0.0000     0.9440 hn         1 9EE       0.253800
     12 H2          -0.3340     0.8170    -0.4720 hn         1 9EE       0.253800
     13 H3           1.8390    -0.8840    -1.8740 hc         1 9EE       0.062200
     14 H4           1.8390     0.8840    -1.8740 hc         1 9EE       0.062200
     15 H5           3.8670     0.8840    -0.4590 hc         1 9EE       0.042700
     16 H6           3.8670    -0.8840    -0.4590 hc         1 9EE       0.042700
     17 H7           4.1090    -0.8840    -2.9200 hc         1 9EE       0.042700
     18 H8           4.1090     0.8840    -2.9200 hc         1 9EE       0.042700
     19 H9           6.1360    -0.8840    -1.5050 hc         1 9EE       0.062200
     20 H10          6.1360     0.8840    -1.5050 hc         1 9EE       0.062200
     21 H11          8.3090    -0.8170    -2.9070 hn         1 9EE       0.253800
     22 H12          8.3090     0.0000    -4.3220 hn         1 9EE       0.253800
     23 HAG3        -0.3340    -0.8170    -0.4720 hn         1 9EE       0.253800
     24 HAJ3         8.3090     0.7980    -2.8750 hn         1 9EE       0.253800
@<TRIPOS>BOND
     1     1     2 1   
     2     1    11 1   
     3     1    12 1   
     4     1    23 1   
     5     2     3 2   
     6     2     4 1   
     7     4     5 1   
     8     4    13 1   
     9     4    14 1   
    10     5     6 1   
    11     5    15 1   
    12     5    16 1   
    13     6     7 1   
    14     6    17 1   
    15     6    18 1   
    16     7     8 1   
    17     7    19 1   
    18     7    20 1   
    19     8     9 2   
    20     8    10 1   
    21    10    21 1   
    22    10    22 1   
    23    10    24 1   
@<TRIPOS>SUBSTRUCTURE
     1 9EE         1 TEMP              0 ****  ****    0 ROOT
