@<TRIPOS>MOLECULE
9EF
   49    48     1     0     0
SMALL
bcc


@<TRIPOS>ATOM
      1 OAG          0.0000     0.0000     0.0000 o          1 9EF      -0.755167
      2 PAW          1.4800     0.0000     0.0000 p5         1 9EF       0.666900
      3 OAH          2.0170     0.0000     1.5180 o          1 9EF      -0.755167
      4 OAR          2.0160    -1.3150    -0.7590 os         1 9EF      -0.481200
      5 CAN          1.6270    -2.6400    -0.3890 c3         1 9EF       0.283400
      6 CAX          2.3160    -3.6490    -1.3100 c3         1 9EF      -0.100000
      7 CAB          1.9030    -3.3810    -2.7590 c3         1 9EF       0.017400
      8 CAC          3.8340    -3.5070    -1.1770 c3         1 9EF       0.017400
      9 CAV          1.8990    -5.0670    -0.9150 c3         1 9EF       0.135100
     10 OAI          2.4000    -5.3640     0.3900 oh         1 9EF      -0.527800
     11 CAU          0.3960    -5.1670    -0.9120 c          1 9EF       0.566100
     12 OAF         -0.2020    -5.2680     0.1380 o          1 9EF      -0.622100
     13 NAQ         -0.2840    -5.1420    -2.0750 ns         1 9EF      -0.236900
     14 CAL         -1.7480    -5.1340    -2.0680 c3         1 9EF       0.066000
     15 CAM         -2.2650    -5.1060    -3.5080 c3         1 9EF      -0.107400
     16 CAT         -3.7720    -5.0960    -3.5000 c          1 9EF       0.582100
     17 OAE         -4.3740    -5.1100    -2.4480 o          1 9EF      -0.627100
     18 NAP         -4.4520    -5.0730    -4.6640 ns         1 9EF      -0.217900
     19 CAK         -5.9170    -5.0630    -4.6570 c3         1 9EF       0.042000
     20 CAJ         -6.4340    -5.0360    -6.0970 c3         1 9EF       0.035000
     21 NAO         -7.8990    -5.0270    -6.0900 ns         1 9EF      -0.190900
     22 CAS         -8.5790    -5.0040    -7.2540 c          1 9EF       0.568100
     23 OAD         -7.9770    -4.9900    -8.3060 o          1 9EF      -0.655100
     24 CAA        -10.0860    -4.9940    -7.2460 c3         1 9EF      -0.067100
     25 O1           2.0170     1.3140    -0.7590 o          1 9EF      -0.755167
     26 H2           1.9200    -2.8290     0.6370 h1         1 9EF      -0.010800
     27 H3           0.5530    -2.7400    -0.4830 h1         1 9EF      -0.010800
     28 H4           2.5650    -2.6410    -3.1920 hc         1 9EF      -0.002800
     29 H5           1.9690    -4.3010    -3.3290 hc         1 9EF      -0.002800
     30 H6           0.8850    -3.0140    -2.7830 hc         1 9EF      -0.002800
     31 H7           4.1070    -3.5130    -0.1290 hc         1 9EF      -0.002800
     32 H8           4.1500    -2.5740    -1.6280 hc         1 9EF      -0.002800
     33 H9           4.3190    -4.3340    -1.6820 hc         1 9EF      -0.002800
     34 H10          2.3060    -5.7740    -1.6270 h1         1 9EF      -0.029300
     35 H11          2.6550    -6.2710     0.4300 ho         1 9EF       0.350000
     36 H12          0.2110    -5.1860    -2.9440 hn         1 9EF       0.175500
     37 H13         -2.1120    -6.0250    -1.5710 h1         1 9EF       0.042200
     38 H14         -2.1020    -4.2560    -1.5400 h1         1 9EF       0.042200
     39 H15         -1.9010    -4.2150    -4.0050 hc         1 9EF       0.027700
     40 H16         -1.9120    -5.9830    -4.0360 hc         1 9EF       0.027700
     41 H17         -3.9560    -5.0620    -5.5330 hn         1 9EF       0.175500
     42 H18         -6.2700    -4.1850    -4.1300 h1         1 9EF       0.025200
     43 H19         -6.2810    -5.9540    -4.1590 h1         1 9EF       0.025200
     44 H20         -6.0690    -4.1460    -6.5940 h1         1 9EF       0.027700
     45 H21         -6.0800    -5.9140    -6.6240 h1         1 9EF       0.027700
     46 H22         -8.3960    -5.0390    -5.2210 hn         1 9EF       0.177500
     47 H23        -10.4390    -4.1380    -6.6850 hc         1 9EF       0.019700
     48 H24        -10.4500    -5.9040    -6.7840 hc         1 9EF       0.019700
     49 H25        -10.4510    -4.9350    -8.2640 hc         1 9EF       0.019700
@<TRIPOS>BOND
     1     1     2 1   
     2     2     3 1   
     3     2     4 1   
     4     2    25 1   
     5     4     5 1   
     6     5     6 1   
     7     5    26 1   
     8     5    27 1   
     9     6     7 1   
    10     6     8 1   
    11     6     9 1   
    12     7    28 1   
    13     7    29 1   
    14     7    30 1   
    15     8    31 1   
    16     8    32 1   
    17     8    33 1   
    18     9    10 1   
    19     9    11 1   
    20     9    34 1   
    21    10    35 1   
    22    11    12 2   
    23    11    13 1   
    24    13    14 1   
    25    13    36 1   
    26    14    15 1   
    27    14    37 1   
    28    14    38 1   
    29    15    16 1   
    30    15    39 1   
    31    15    40 1   
    32    16    17 2   
    33    16    18 1   
    34    18    19 1   
    35    18    41 1   
    36    19    20 1   
    37    19    42 1   
    38    19    43 1   
    39    20    21 1   
    40    20    44 1   
    41    20    45 1   
    42    21    22 1   
    43    21    46 1   
    44    22    23 2   
    45    22    24 1   
    46    24    47 1   
    47    24    48 1   
    48    24    49 1   
@<TRIPOS>SUBSTRUCTURE
     1 9EF         1 TEMP              0 ****  ****    0 ROOT
