@<TRIPOS>MOLECULE
molecule
   49    48     1     0     0
SMALL
bcc


@<TRIPOS>ATOM
      1 OAG          0.0000     0.0000     0.0000 o          1 9EF      -0.910167
      2 PAW          1.4800     0.0000     0.0000 p5         1 9EF       1.179900
      3 OAH          2.0170     0.0000     1.5180 o          1 9EF      -0.910167
      4 OAR          2.0160    -1.3150    -0.7590 os         1 9EF      -0.585200
      5 CAN          1.6270    -2.6400    -0.3890 c3         1 9EF       0.229400
      6 CAX          2.3160    -3.6490    -1.3100 c3         1 9EF      -0.071000
      7 CAB          1.9030    -3.3810    -2.7590 c3         1 9EF      -0.066100
      8 CAC          3.8340    -3.5070    -1.1770 c3         1 9EF      -0.066100
      9 CAV          1.8990    -5.0670    -0.9150 c3         1 9EF       0.089100
     10 OAI          2.4000    -5.3640     0.3900 oh         1 9EF      -0.550800
     11 CAU          0.3960    -5.1670    -0.9120 c          1 9EF       0.645100
     12 OAF         -0.2020    -5.2680     0.1380 o          1 9EF      -0.583100
     13 NAQ         -0.2840    -5.1420    -2.0750 ns         1 9EF      -0.601900
     14 CAL         -1.7480    -5.1340    -2.0680 c3         1 9EF       0.129000
     15 CAM         -2.2650    -5.1060    -3.5080 c3         1 9EF      -0.174400
     16 CAT         -3.7720    -5.0960    -3.5000 c          1 9EF       0.665100
     17 OAE         -4.3740    -5.1100    -2.4480 o          1 9EF      -0.591100
     18 NAP         -4.4520    -5.0730    -4.6640 ns         1 9EF      -0.597900
     19 CAK         -5.9170    -5.0630    -4.6570 c3         1 9EF       0.098000
     20 CAJ         -6.4340    -5.0360    -6.0970 c3         1 9EF       0.092000
     21 NAO         -7.8990    -5.0270    -6.0900 ns         1 9EF      -0.584900
     22 CAS         -8.5790    -5.0040    -7.2540 c          1 9EF       0.657100
     23 OAD         -7.9770    -4.9900    -8.3060 o          1 9EF      -0.614100
     24 CAA        -10.0860    -4.9940    -7.2460 c3         1 9EF      -0.172100
     25 O1           2.0170     1.3140    -0.7590 o          1 9EF      -0.910167
     26 H2           1.9200    -2.8290     0.6370 h1         1 9EF       0.030200
     27 H3           0.5530    -2.7400    -0.4830 h1         1 9EF       0.030200
     28 H4           2.5650    -2.6410    -3.1920 hc         1 9EF       0.028033
     29 H5           1.9690    -4.3010    -3.3290 hc         1 9EF       0.028033
     30 H6           0.8850    -3.0140    -2.7830 hc         1 9EF       0.028033
     31 H7           4.1070    -3.5130    -0.1290 hc         1 9EF       0.028033
     32 H8           4.1500    -2.5740    -1.6280 hc         1 9EF       0.028033
     33 H9           4.3190    -4.3340    -1.6820 hc         1 9EF       0.028033
     34 H10          2.3060    -5.7740    -1.6270 h1         1 9EF       0.005700
     35 H11          2.6550    -6.2710     0.4300 ho         1 9EF       0.372000
     36 H12          0.2110    -5.1860    -2.9440 hn         1 9EF       0.305500
     37 H13         -2.1120    -6.0250    -1.5710 h1         1 9EF       0.071700
     38 H14         -2.1020    -4.2560    -1.5400 h1         1 9EF       0.071700
     39 H15         -1.9010    -4.2150    -4.0050 hc         1 9EF       0.061700
     40 H16         -1.9120    -5.9830    -4.0360 hc         1 9EF       0.061700
     41 H17         -3.9560    -5.0620    -5.5330 hn         1 9EF       0.312500
     42 H18         -6.2700    -4.1850    -4.1300 h1         1 9EF       0.054700
     43 H19         -6.2810    -5.9540    -4.1590 h1         1 9EF       0.054700
     44 H20         -6.0690    -4.1460    -6.5940 h1         1 9EF       0.055700
     45 H21         -6.0800    -5.9140    -6.6240 h1         1 9EF       0.055700
     46 H22         -8.3960    -5.0390    -5.2210 hn         1 9EF       0.316500
     47 H23        -10.4390    -4.1380    -6.6850 hc         1 9EF       0.058033
     48 H24        -10.4500    -5.9040    -6.7840 hc         1 9EF       0.058033
     49 H25        -10.4510    -4.9350    -8.2640 hc         1 9EF       0.058033
@<TRIPOS>BOND
     1     7     6 1
     2     4     5 1
     3     4     2 1
     4     5     6 1
     5     1     2 1
     6     6     8 1
     7     6     9 1
     8     2     3 1
     9    24    22 1
    10     9    11 1
    11     9    10 1
    12    12    11 2
    13    22    23 2
    14    22    21 1
    15    11    13 1
    16    21    20 1
    17    13    14 1
    18    15    14 1
    19    15    16 1
    20    18    16 1
    21    18    19 1
    22    20    19 1
    23    16    17 2
    24     2    25 1
    25     5    26 1
    26     5    27 1
    27     7    28 1
    28     7    29 1
    29     7    30 1
    30     8    31 1
    31     8    32 1
    32     8    33 1
    33     9    34 1
    34    10    35 1
    35    13    36 1
    36    14    37 1
    37    14    38 1
    38    15    39 1
    39    15    40 1
    40    18    41 1
    41    19    42 1
    42    19    43 1
    43    20    44 1
    44    20    45 1
    45    21    46 1
    46    24    47 1
    47    24    48 1
    48    24    49 1
@<TRIPOS>SUBSTRUCTURE
     1 9EF         1 TEMP              0 ****  ****    0 ROOT
