@<TRIPOS>MOLECULE
molecule
   28    29     1     0     0
SMALL
bcc


@<TRIPOS>ATOM
      1 C12          0.0000     0.0000     0.0000 ca         1 9EG      -0.152000
      2 C11          1.3880     0.0000     0.0000 ca         1 9EG       0.081600
      3 Cl2         -2.4250     0.0140     1.2020 cl         1 9EG      -0.084400
      4 Cl1          8.9480    -3.7090    -3.0300 cl         1 9EG      -0.109400
      5 C8           3.2710    -0.6380    -1.3070 c          1 9EG       0.783100
      6 N1           2.0880    -0.0000    -1.2130 ns         1 9EG      -0.488100
      7 C4           5.1700    -1.3010    -2.5810 ca         1 9EG       0.070600
      8 C5           6.2370    -0.7910    -3.3080 ca         1 9EG      -0.137000
      9 C6           7.3940    -1.5310    -3.4440 ca         1 9EG      -0.103500
     10 C1           7.4910    -2.7800    -2.8570 ca         1 9EG       0.012400
     11 C2           6.4290    -3.2910    -2.1320 ca         1 9EG      -0.103500
     12 C3           5.2710    -2.5510    -1.9870 ca         1 9EG      -0.137000
     13 N7           3.9950    -0.5520    -2.4410 ns         1 9EG      -0.488100
     14 O9           3.6860    -1.2920    -0.3700 o          1 9EG      -0.629100
     15 C13         -0.6890     0.0060     1.1980 ca         1 9EG       0.047400
     16 C14          0.0050     0.0070     2.3980 ca         1 9EG       0.012400
     17 C15          1.3890     0.0010     2.3980 ca         1 9EG      -0.095000
     18 C16          2.0810     0.0000     1.2030 ca         1 9EG      -0.120000
     19 Cl3         -0.8620     0.0150     3.9010 cl         1 9EG      -0.086400
     20 H1          -0.5420     0.0540    -0.9370 ha         1 9EG       0.148000
     21 H2           1.7210     0.4920    -2.0030 hn         1 9EG       0.322500
     22 H3           6.1610     0.1860    -3.7700 ha         1 9EG       0.153000
     23 H4           8.2270    -1.1340    -4.0120 ha         1 9EG       0.148000
     24 H5           6.5090    -4.2670    -1.6690 ha         1 9EG       0.148000
     25 H6           4.4400    -2.9510    -1.4200 ha         1 9EG       0.153000
     26 H7           3.6840     0.0340    -3.1900 hn         1 9EG       0.321500
     27 H8           1.9300     0.0010     3.3370 ha         1 9EG       0.156000
     28 H9           3.1650    -0.0020     1.2040 ha         1 9EG       0.175000
@<TRIPOS>BOND
     1     9     8 ar
     2     9    10 ar
     3     4    10 1
     4     8     7 ar
     5    10    11 ar
     6    14     5 2
     7     7    13 1
     8     7    12 ar
     9    17    18 ar
    10    17    16 ar
    11     5    13 1
    12     5     6 1
    13    18     2 ar
    14    11    12 ar
    15    19    16 1
    16    16    15 ar
    17     2     6 1
    18     2     1 ar
    19    15     1 ar
    20    15     3 1
    21     1    20 1
    22     6    21 1
    23     8    22 1
    24     9    23 1
    25    11    24 1
    26    12    25 1
    27    13    26 1
    28    17    27 1
    29    18    28 1
@<TRIPOS>SUBSTRUCTURE
     1 9EG         1 TEMP              0 ****  ****    0 ROOT
