@<TRIPOS>MOLECULE
9EG
   28    29     1     0     0
SMALL
bcc


@<TRIPOS>ATOM
      1 C12          0.0000     0.0000     0.0000 ca         1 9EG      -0.127000
      2 C11          1.3880     0.0000     0.0000 ca         1 9EG      -0.064400
      3 Cl2         -2.4250     0.0140     1.2020 cl         1 9EG      -0.005400
      4 Cl1          8.9480    -3.7090    -3.0300 cl         1 9EG      -0.029400
      5 C8           3.2710    -0.6380    -1.3070 c          1 9EG       0.553100
      6 N1           2.0880    -0.0000    -1.2130 ns         1 9EG      -0.050100
      7 C4           5.1700    -1.3010    -2.5810 ca         1 9EG      -0.077400
      8 C5           6.2370    -0.7910    -3.3080 ca         1 9EG      -0.108500
      9 C6           7.3940    -1.5310    -3.4440 ca         1 9EG      -0.079500
     10 C1           7.4910    -2.7800    -2.8570 ca         1 9EG      -0.047600
     11 C2           6.4290    -3.2910    -2.1320 ca         1 9EG      -0.079500
     12 C3           5.2710    -2.5510    -1.9870 ca         1 9EG      -0.108500
     13 N7           3.9950    -0.5520    -2.4410 ns         1 9EG      -0.049100
     14 O9           3.6860    -1.2920    -0.3700 o          1 9EG      -0.679100
     15 C13         -0.6890     0.0060     1.1980 ca         1 9EG      -0.021600
     16 C14          0.0050     0.0070     2.3980 ca         1 9EG      -0.055600
     17 C15          1.3890     0.0010     2.3980 ca         1 9EG      -0.068000
     18 C16          2.0810     0.0000     1.2030 ca         1 9EG      -0.094000
     19 Cl3         -0.8620     0.0150     3.9010 cl         1 9EG      -0.005400
     20 H1          -0.5420     0.0540    -0.9370 ha         1 9EG       0.118000
     21 H2           1.7210     0.4920    -2.0030 hn         1 9EG       0.163500
     22 H3           6.1610     0.1860    -3.7700 ha         1 9EG       0.126500
     23 H4           8.2270    -1.1340    -4.0120 ha         1 9EG       0.115500
     24 H5           6.5090    -4.2670    -1.6690 ha         1 9EG       0.115500
     25 H6           4.4400    -2.9510    -1.4200 ha         1 9EG       0.126500
     26 H7           3.6840     0.0340    -3.1900 hn         1 9EG       0.162500
     27 H8           1.9300     0.0010     3.3370 ha         1 9EG       0.119000
     28 H9           3.1650    -0.0020     1.2040 ha         1 9EG       0.149000
@<TRIPOS>BOND
     1     1     2 ar  
     2     1    15 ar  
     3     1    20 1   
     4     2     6 1   
     5     2    18 ar  
     6     3    15 1   
     7     4    10 1   
     8     5     6 1   
     9     5    13 1   
    10     5    14 2   
    11     6    21 1   
    12     7     8 ar  
    13     7    12 ar  
    14     7    13 1   
    15     8     9 ar  
    16     8    22 1   
    17     9    10 ar  
    18     9    23 1   
    19    10    11 ar  
    20    11    12 ar  
    21    11    24 1   
    22    12    25 1   
    23    13    26 1   
    24    15    16 ar  
    25    16    17 ar  
    26    16    19 1   
    27    17    18 ar  
    28    17    27 1   
    29    18    28 1   
@<TRIPOS>SUBSTRUCTURE
     1 9EG         1 TEMP              0 ****  ****    0 ROOT
