@<TRIPOS>MOLECULE
9EJ
   73    77     1     0     0
SMALL
bcc


@<TRIPOS>ATOM
      1 C10          0.0000     0.0000     0.0000 c3         1 9EJ       0.048000
      2 N12          0.0900     1.1230     2.1740 n3         1 9EJ      -0.546600
      3 C13         -2.0330     0.1460     1.4440 c3         1 9EJ      -0.039100
      4 C15         -0.1800     1.0170     3.6140 c3         1 9EJ       0.134300
      5 C17          0.5170     3.5340     2.1640 c3         1 9EJ      -0.000600
      6 C20          6.4400    -1.6810    -4.0150 cy         1 9EJ       0.132800
      7 C21          7.9320    -1.4630    -4.3250 cy         1 9EJ      -0.049400
      8 C22          7.8990    -0.3750    -3.2380 cy         1 9EJ       0.012500
      9 C01          4.3350     0.0030     0.0310 ca         1 9EJ      -0.227300
     10 C02          3.6200    -0.0950    -1.1640 ca         1 9EJ      -0.102600
     11 C03          4.3360    -0.1950    -2.3590 ca         1 9EJ      -0.161300
     12 C04          5.7260    -0.1930    -2.3200 ca         1 9EJ       0.473200
     13 N05          6.3720    -0.0970    -1.1700 nb         1 9EJ      -0.589000
     14 C06          5.7290    -0.0000    -0.0110 ca         1 9EJ       0.513100
     15 N08          1.4650     0.0000     0.0000 ns         1 9EJ      -0.184900
     16 O09          1.5310    -0.1830    -2.2120 o          1 9EJ      -0.650100
     17 C11         -0.5100     0.0000     1.4420 c3         1 9EJ       0.104500
     18 C16          0.6450    -0.1260     4.2070 c3         1 9EJ      -0.000600
     19 C18          6.5000     0.1100     1.2450 cc         1 9EJ      -0.413400
     20 N19          6.4450    -0.2910    -3.5050 nn         1 9EJ      -0.445300
     21 C23          8.6590     0.8740    -3.6060 c          1 9EJ       0.586100
     22 O24          8.0610     1.8600    -3.9790 o          1 9EJ      -0.619100
     23 N25         10.0030     0.8940    -3.5180 ns         1 9EJ      -0.204900
     24 C27          6.2690     1.0200     2.2850 cc         1 9EJ       0.507500
     25 N28          7.1520     0.8160     3.2300 nd         1 9EJ      -0.733100
     26 N29          7.9990    -0.2330     2.8540 na         1 9EJ       0.535200
     27 C30          7.5960    -0.6810     1.6240 cd         1 9EJ       0.213500
     28 C31          9.0660    -0.8220     3.4790 cc         1 9EJ      -0.156300
     29 C32          9.7120    -1.8380     2.8660 cd         1 9EJ      -0.240300
     30 C33          9.2720    -2.2710     1.5930 cc         1 9EJ       0.482800
     31 N34          8.2320    -1.6850     1.0180 nd         1 9EJ      -0.519000
     32 C35          9.9640    -3.3780     0.9110 cc         1 9EJ      -0.069600
     33 C36          9.5760    -3.9420    -0.2540 cd         1 9EJ      -0.080000
     34 C37         10.3860    -4.9630    -0.6960 cd         1 9EJ      -0.135000
     35 C38         11.4320    -5.2410     0.0910 cc         1 9EJ       0.022900
     36 S39         11.4300    -4.1650     1.4830 ss         1 9EJ      -0.262800
     37 H1          -0.3610    -0.8850    -0.5100 h1         1 9EJ       0.031700
     38 H2          -0.3610     0.8840    -0.5110 h1         1 9EJ       0.031700
     39 H4          -2.4790    -0.7160     0.9620 hc         1 9EJ       0.016367
     40 H5          -2.3110     1.0440     0.9060 hc         1 9EJ       0.016367
     41 H6          -2.3880     0.2130     2.4660 hc         1 9EJ       0.016367
     42 H7           0.0880     1.9470     4.1010 h1         1 9EJ       0.018450
     43 H8          -1.2340     0.8200     3.7700 h1         1 9EJ       0.018450
     44 H9          -0.0140     4.0970     2.9220 hc         1 9EJ       0.007033
     45 H10          1.4060     3.0930     2.5990 hc         1 9EJ       0.007033
     46 H11          0.8010     4.1960     1.3550 hc         1 9EJ       0.007033
     47 H13          6.2690    -2.4180    -3.2400 h1         1 9EJ       0.032200
     48 H14          8.1070    -1.0680    -5.3180 hc         1 9EJ       0.033200
     49 H15          8.5500    -2.3120    -4.0580 hc         1 9EJ       0.033200
     50 H16          8.1220    -0.7610    -2.2510 h1         1 9EJ       0.085700
     51 H17         11.7990     1.9590    -3.6670 h1         1 9EJ       0.007700
     52 H18         10.4290     2.8860    -3.0380 h1         1 9EJ       0.007700
     53 H19         10.5170     2.4970    -4.7620 h1         1 9EJ       0.007700
     54 H20          3.8150     0.0820     0.9780 ha         1 9EJ       0.118000
     55 H21          3.8140    -0.2730    -3.3060 ha         1 9EJ       0.146000
     56 H22          1.9650     0.0140     0.8670 hn         1 9EJ       0.193500
     57 H23         -0.2360    -0.9320     1.9220 h1         1 9EJ       0.043700
     58 H26          1.6070    -0.1710     3.7100 hc         1 9EJ       0.007033
     59 H27          0.1210    -1.0620     4.0630 hc         1 9EJ       0.007033
     60 H28          0.7930     0.0470     5.2660 hc         1 9EJ       0.007033
     61 H29         10.5020     0.0620    -3.2720 hn         1 9EJ       0.167500
     62 H30          5.4850     1.7680     2.3060 h4         1 9EJ       0.018800
     63 H31          9.3880    -0.4770     4.4540 h4         1 9EJ       0.147000
     64 H32         10.5610    -2.3130     3.3430 ha         1 9EJ       0.142000
     65 H33          8.6970    -3.6160    -0.7970 ha         1 9EJ       0.138000
     66 H34         10.1900    -5.5030    -1.6150 ha         1 9EJ       0.124000
     67 H35         12.1700    -6.0100    -0.1010 h4         1 9EJ       0.151000
     68 C14         -0.3790     2.4090     1.6430 c3         1 9EJ       0.134300
     69 C07          2.1380    -0.0960    -1.1630 c          1 9EJ       0.588700
     70 H12          5.8340    -1.8050    -4.9050 h1         1 9EJ       0.032200
     71 C26         10.7350     2.1400    -3.7620 c3         1 9EJ       0.088300
     72 H24         -0.3400     2.3890     0.5610 h1         1 9EJ       0.018450
     73 H25         -1.3990     2.5820     1.9640 h1         1 9EJ       0.018450
@<TRIPOS>BOND
     1     1    15 1   
     2     1    17 1   
     3     1    37 1   
     4     1    38 1   
     5     2     4 1   
     6     2    17 1   
     7     2    68 1   
     8     3    17 1   
     9     3    39 1   
    10     3    40 1   
    11     3    41 1   
    12     4    18 1   
    13     4    42 1   
    14     4    43 1   
    15     5    44 1   
    16     5    45 1   
    17     5    46 1   
    18     5    68 1   
    19     6     7 1   
    20     6    20 1   
    21     6    47 1   
    22     6    70 1   
    23     7     8 1   
    24     7    48 1   
    25     7    49 1   
    26     8    20 1   
    27     8    21 1   
    28     8    50 1   
    29     9    10 ar  
    30     9    14 ar  
    31     9    54 1   
    32    10    11 ar  
    33    10    69 1   
    34    11    12 ar  
    35    11    55 1   
    36    12    13 ar  
    37    12    20 1   
    38    13    14 ar  
    39    14    19 1   
    40    15    56 1   
    41    15    69 1   
    42    16    69 2   
    43    17    57 1   
    44    18    58 1   
    45    18    59 1   
    46    18    60 1   
    47    19    24 1   
    48    19    27 2   
    49    21    22 2   
    50    21    23 1   
    51    23    61 1   
    52    23    71 1   
    53    24    25 2   
    54    24    62 1   
    55    25    26 1   
    56    26    27 1   
    57    26    28 1   
    58    27    31 1   
    59    28    29 2   
    60    28    63 1   
    61    29    30 1   
    62    29    64 1   
    63    30    31 2   
    64    30    32 1   
    65    32    33 2   
    66    32    36 1   
    67    33    34 1   
    68    33    65 1   
    69    34    35 2   
    70    34    66 1   
    71    35    36 1   
    72    35    67 1   
    73    51    71 1   
    74    52    71 1   
    75    53    71 1   
    76    68    72 1   
    77    68    73 1   
@<TRIPOS>SUBSTRUCTURE
     1 9EJ         1 TEMP              0 ****  ****    0 ROOT
