@<TRIPOS>MOLECULE
molecule
   73    77     1     0     0
SMALL
bcc


@<TRIPOS>ATOM
      1 C10          0.0000     0.0000     0.0000 c3         1 9EJ       0.122000
      2 N12          0.0900     1.1230     2.1740 n3         1 9EJ      -0.732600
      3 C13         -2.0330     0.1460     1.4440 c3         1 9EJ      -0.128100
      4 C15         -0.1800     1.0170     3.6140 c3         1 9EJ       0.152800
      5 C17          0.5170     3.5340     2.1640 c3         1 9EJ      -0.093600
      6 C20          6.4400    -1.6810    -4.0150 cy         1 9EJ       0.125800
      7 C21          7.9320    -1.4630    -4.3250 cy         1 9EJ      -0.108400
      8 C22          7.8990    -0.3750    -3.2380 cy         1 9EJ       0.054500
      9 C01          4.3350     0.0030     0.0310 ca         1 9EJ      -0.246300
     10 C02          3.6200    -0.0950    -1.1640 ca         1 9EJ      -0.094600
     11 C03          4.3360    -0.1950    -2.3590 ca         1 9EJ      -0.192300
     12 C04          5.7260    -0.1930    -2.3200 ca         1 9EJ       0.578200
     13 N05          6.3720    -0.0970    -1.1700 nb         1 9EJ      -0.710000
     14 C06          5.7290    -0.0000    -0.0110 ca         1 9EJ       0.549100
     15 N08          1.4650     0.0000     0.0000 ns         1 9EJ      -0.569900
     16 O09          1.5310    -0.1830    -2.2120 o          1 9EJ      -0.609100
     17 C11         -0.5100     0.0000     1.4420 c3         1 9EJ       0.144500
     18 C16          0.6450    -0.1260     4.2070 c3         1 9EJ      -0.093600
     19 C18          6.5000     0.1100     1.2450 cc         1 9EJ      -0.390400
     20 N19          6.4450    -0.2910    -3.5050 nn         1 9EJ      -0.614300
     21 C23          8.6590     0.8740    -3.6060 c          1 9EJ       0.675100
     22 O24          8.0610     1.8600    -3.9790 o          1 9EJ      -0.578100
     23 N25         10.0030     0.8940    -3.5180 ns         1 9EJ      -0.594900
     24 C27          6.2690     1.0200     2.2850 cc         1 9EJ       0.439500
     25 N28          7.1520     0.8160     3.2300 nd         1 9EJ      -0.569100
     26 N29          7.9990    -0.2330     2.8540 na         1 9EJ       0.035200
     27 C30          7.5960    -0.6810     1.6240 cc         1 9EJ       0.436500
     28 C31          9.0660    -0.8220     3.4790 cc         1 9EJ       0.024700
     29 C32          9.7120    -1.8380     2.8660 cd         1 9EJ      -0.312300
     30 C33          9.2720    -2.2710     1.5930 cd         1 9EJ       0.558800
     31 N34          8.2320    -1.6850     1.0180 nc         1 9EJ      -0.662000
     32 C35          9.9640    -3.3780     0.9110 cd         1 9EJ      -0.117600
     33 C36          9.5760    -3.9420    -0.2540 cc         1 9EJ      -0.099000
     34 C37         10.3860    -4.9630    -0.6960 cc         1 9EJ      -0.168000
     35 C38         11.4320    -5.2410     0.0910 cd         1 9EJ      -0.054100
     36 S39         11.4300    -4.1650     1.4830 ss         1 9EJ      -0.138800
     37 H1          -0.3610    -0.8850    -0.5100 h1         1 9EJ       0.054700
     38 H2          -0.3610     0.8840    -0.5110 h1         1 9EJ       0.054700
     39 H4          -2.4790    -0.7160     0.9620 hc         1 9EJ       0.044033
     40 H5          -2.3110     1.0440     0.9060 hc         1 9EJ       0.044033
     41 H6          -2.3880     0.2130     2.4660 hc         1 9EJ       0.044033
     42 H7           0.0880     1.9470     4.1010 h1         1 9EJ       0.038450
     43 H8          -1.2340     0.8200     3.7700 h1         1 9EJ       0.038450
     44 H9          -0.0140     4.0970     2.9220 hc         1 9EJ       0.039033
     45 H10          1.4060     3.0930     2.5990 hc         1 9EJ       0.039033
     46 H11          0.8010     4.1960     1.3550 hc         1 9EJ       0.039033
     47 H13          6.2690    -2.4180    -3.2400 h1         1 9EJ       0.067200
     48 H14          8.1070    -1.0680    -5.3180 hc         1 9EJ       0.065200
     49 H15          8.5500    -2.3120    -4.0580 hc         1 9EJ       0.065200
     50 H16          8.1220    -0.7610    -2.2510 h1         1 9EJ       0.111700
     51 H17         11.7990     1.9590    -3.6670 h1         1 9EJ       0.040033
     52 H18         10.4290     2.8860    -3.0380 h1         1 9EJ       0.040033
     53 H19         10.5170     2.4970    -4.7620 h1         1 9EJ       0.040033
     54 H20          3.8150     0.0820     0.9780 ha         1 9EJ       0.137000
     55 H21          3.8140    -0.2730    -3.3060 ha         1 9EJ       0.172000
     56 H22          1.9650     0.0140     0.8670 hn         1 9EJ       0.329500
     57 H23         -0.2360    -0.9320     1.9220 h1         1 9EJ       0.067700
     58 H26          1.6070    -0.1710     3.7100 hc         1 9EJ       0.039033
     59 H27          0.1210    -1.0620     4.0630 hc         1 9EJ       0.039033
     60 H28          0.7930     0.0470     5.2660 hc         1 9EJ       0.039033
     61 H29         10.5020     0.0620    -3.2720 hn         1 9EJ       0.309500
     62 H30          5.4850     1.7680     2.3060 h4         1 9EJ       0.070800
     63 H31          9.3880    -0.4770     4.4540 h4         1 9EJ       0.179000
     64 H32         10.5610    -2.3130     3.3430 ha         1 9EJ       0.163000
     65 H33          8.6970    -3.6160    -0.7970 ha         1 9EJ       0.170000
     66 H34         10.1900    -5.5030    -1.6150 ha         1 9EJ       0.154000
     67 H35         12.1700    -6.0100    -0.1010 h4         1 9EJ       0.175000
     68 C14         -0.3790     2.4090     1.6430 c3         1 9EJ       0.152800
     69 C07          2.1380    -0.0960    -1.1630 c          1 9EJ       0.668700
     70 H12          5.8340    -1.8050    -4.9050 h1         1 9EJ       0.067200
     71 C26         10.7350     2.1400    -3.7620 c3         1 9EJ       0.105300
     72 H24         -0.3400     2.3890     0.5610 h1         1 9EJ       0.038450
     73 H25         -1.3990     2.5820     1.9640 h1         1 9EJ       0.038450
@<TRIPOS>BOND
     1     3    17 1
     2    68     5 1
     3    68     2 1
     4    34    35 2
     5    34    33 1
     6    35    36 1
     7     4     2 1
     8     4    18 1
     9     2    17 1
    10    17     1 1
    11    33    32 2
    12    36    32 1
    13     1    15 1
    14    32    30 1
    15    15    69 1
    16    30    29 1
    17    30    31 2
    18    16    69 2
    19    69    10 1
    20    29    28 2
    21    31    27 1
    22    10     9 ar
    23    10    11 ar
    24     9    14 ar
    25    28    26 1
    26    27    26 1
    27    27    19 2
    28    11    12 ar
    29    26    25 1
    30    14    19 1
    31    14    13 ar
    32    19    24 1
    33    71    23 1
    34    22    21 2
    35    12    13 ar
    36    12    20 1
    37    25    24 2
    38    23    21 1
    39    21     8 1
    40    20     8 1
    41    20     6 1
    42     8     7 1
    43     6     7 1
    44     1    37 1
    45     1    38 1
    46     3    39 1
    47     3    40 1
    48     3    41 1
    49     4    42 1
    50     4    43 1
    51     5    44 1
    52     5    45 1
    53     5    46 1
    54     6    70 1
    55     6    47 1
    56     7    48 1
    57     7    49 1
    58     8    50 1
    59    71    51 1
    60    71    52 1
    61    71    53 1
    62     9    54 1
    63    11    55 1
    64    15    56 1
    65    17    57 1
    66    68    72 1
    67    68    73 1
    68    18    58 1
    69    18    59 1
    70    18    60 1
    71    23    61 1
    72    24    62 1
    73    28    63 1
    74    29    64 1
    75    33    65 1
    76    34    66 1
    77    35    67 1
@<TRIPOS>SUBSTRUCTURE
     1 9EJ         1 TEMP              0 ****  ****    0 ROOT
