@<TRIPOS>MOLECULE
molecule
   60    64     1     0     0
SMALL
bcc


@<TRIPOS>ATOM
      1 C1           0.0000     0.0000     0.0000 c          1 9EK       0.685700
      2 C7          -1.9620    -0.6910    -1.3750 ca         1 9EK       0.188100
      3 C9          -2.1970    -0.0300    -3.6670 ca         1 9EK      -0.029000
      4 C10         -0.9220     0.6980    -3.5700 ca         1 9EK      -0.124000
      5 C11         -0.7380     1.2530    -4.8450 cc         1 9EK      -0.193300
      6 C14          0.3870     2.0810    -5.2890 c          1 9EK       0.722300
      7 C16         -0.6580     2.4150    -7.5450 c3         1 9EK       0.092500
      8 C19          1.3800     3.5680    -7.0520 c3         1 9EK       0.092500
      9 C21          2.0490    -0.1140     1.2070 ca         1 9EK       0.041600
     10 C22          1.3650    -0.3890     2.3830 ca         1 9EK      -0.147500
     11 C24          4.1180    -0.0530     2.4190 ca         1 9EK      -0.145500
     12 C30          5.7050     0.5970     6.3670 c3         1 9EK       0.136400
     13 C32          4.0320    -0.8990     7.2030 c3         1 9EK       0.136400
     14 C33          3.2200    -0.7300     5.9160 c3         1 9EK       0.125300
     15 N2           1.3480     0.0000     0.0000 n          1 9EK      -0.369000
     16 O3          -0.6060     0.0000     1.0530 o          1 9EK      -0.579100
     17 C4          -0.7390     0.0060    -1.2770 ca         1 9EK      -0.165600
     18 C5          -0.2200     0.6950    -2.3610 ca         1 9EK      -0.023000
     19 C6          -2.6770    -0.7140    -2.5330 ca         1 9EK      -0.200000
     20 N12         -1.8110     0.8700    -5.5850 na         1 9EK       0.098800
     21 N13         -2.6260     0.1460    -4.9050 nc         1 9EK      -0.277400
     22 N15          0.3700     2.6360    -6.5170 n          1 9EK      -0.498800
     23 C17         -0.2760     3.2740    -8.7680 c3         1 9EK      -0.094900
     24 C18          0.6390     4.3670    -8.1540 c3         1 9EK      -0.094900
     25 O20          1.3350     2.2660    -4.5510 o          1 9EK      -0.590100
     26 C23          3.4340    -0.3290     3.5950 ca         1 9EK       0.074600
     27 C25          2.0550    -0.4960     3.5740 ca         1 9EK      -0.145500
     28 C26          3.4280     0.0530     1.2280 ca         1 9EK      -0.147500
     29 N28          4.1330    -0.4370     4.8020 nh         1 9EK      -0.595000
     30 C29          4.9100     0.7820     5.0720 c3         1 9EK       0.125300
     31 O31          4.8040     0.2830     7.4320 os         1 9EK      -0.424600
     32 H1          -1.6260     2.7220    -7.1680 h1         1 9EK       0.051450
     33 H2          -0.6790     1.3680    -7.8230 h1         1 9EK       0.051450
     34 H3           2.2090     3.0180    -7.4810 h1         1 9EK       0.051450
     35 H4           1.7250     4.2360    -6.2730 h1         1 9EK       0.051450
     36 H5           0.2900    -0.5200     2.3670 ha         1 9EK       0.167500
     37 H6           5.1930     0.0770     2.4350 ha         1 9EK       0.137000
     38 H7           2.2440     1.1670    -1.4890 h1         1 9EK       0.054033
     39 H8           1.5040    -0.3350    -2.0600 h1         1 9EK       0.054033
     40 H9           3.0360    -0.3840    -1.1770 h1         1 9EK       0.054033
     41 H10          6.4140    -0.2120     6.2440 h1         1 9EK       0.053700
     42 H11          6.2320     1.5150     6.6010 h1         1 9EK       0.053700
     43 H12          3.3580    -1.0570     8.0370 h1         1 9EK       0.053700
     44 H13          4.6950    -1.7500     7.1020 h1         1 9EK       0.053700
     45 H14          2.5220     0.0900     6.0350 h1         1 9EK       0.051200
     46 H15          2.6790    -1.6450     5.7080 h1         1 9EK       0.051200
     47 H16          0.6330     1.3490    -2.2290 ha         1 9EK       0.170000
     48 H17         -3.6140    -1.2570    -2.5820 ha         1 9EK       0.149000
     49 H18         -3.3760    -1.3330    -0.2910 ho         1 9EK       0.425000
     50 H19         -1.9490     1.1210    -6.5440 hn         1 9EK       0.343700
     51 H20          0.2690     2.6830    -9.4940 hc         1 9EK       0.061450
     52 H21         -1.1580     3.7200    -9.2120 hc         1 9EK       0.061450
     53 H22          0.0490     5.1650    -7.7210 hc         1 9EK       0.061450
     54 H23          1.3360     4.7450    -8.8920 hc         1 9EK       0.061450
     55 H24          1.5220    -0.7110     4.4920 ha         1 9EK       0.137000
     56 H25          3.9620     0.2680     0.3100 ha         1 9EK       0.167500
     57 H26          4.2360     1.6230     5.1790 h1         1 9EK       0.051200
     58 H27          5.5950     0.9620     4.2520 h1         1 9EK       0.051200
     59 O8          -2.4330    -1.3590    -0.2910 oh         1 9EK      -0.479100
     60 C27          2.0810     0.1200    -1.2640 c3         1 9EK       0.073300
@<TRIPOS>BOND
     1    60    15 1
     2    16     1 2
     3    15     1 1
     4    15     9 1
     5     1    17 1
     6    10     9 ar
     7    10    27 ar
     8     9    28 ar
     9    17    18 ar
    10    17     2 ar
    11    59     2 1
    12    27    26 ar
    13    24    23 1
    14    24     8 1
    15    18     4 ar
    16     2    19 ar
    17    28    11 ar
    18    23     7 1
    19     8    22 1
    20    26    11 ar
    21    26    29 1
    22     7    22 1
    23    22     6 1
    24     4     3 ar
    25     4     5 2
    26    19     3 ar
    27    30    29 1
    28    30    12 1
    29    29    14 1
    30     3    21 2
    31     6     5 1
    32     6    25 2
    33     5    20 1
    34    12    31 1
    35    14    13 1
    36    21    20 1
    37    31    13 1
    38     7    32 1
    39     7    33 1
    40     8    34 1
    41     8    35 1
    42    10    36 1
    43    11    37 1
    44    60    38 1
    45    60    39 1
    46    60    40 1
    47    12    41 1
    48    12    42 1
    49    13    43 1
    50    13    44 1
    51    14    45 1
    52    14    46 1
    53    18    47 1
    54    19    48 1
    55    59    49 1
    56    20    50 1
    57    23    51 1
    58    23    52 1
    59    24    53 1
    60    24    54 1
    61    27    55 1
    62    28    56 1
    63    30    57 1
    64    30    58 1
@<TRIPOS>SUBSTRUCTURE
     1 9EK         1 TEMP              0 ****  ****    0 ROOT
