@<TRIPOS>MOLECULE
9EK
   60    64     1     0     0
SMALL
bcc


@<TRIPOS>ATOM
      1 C1           0.0000     0.0000     0.0000 c          1 9EK       0.605700
      2 C7          -1.9620    -0.6910    -1.3750 ca         1 9EK       0.207100
      3 C9          -2.1970    -0.0300    -3.6670 ca         1 9EK      -0.018000
      4 C10         -0.9220     0.6980    -3.5700 ca         1 9EK      -0.115000
      5 C11         -0.7380     1.2530    -4.8450 cc         1 9EK      -0.410300
      6 C14          0.3870     2.0810    -5.2890 c          1 9EK       0.672300
      7 C16         -0.6580     2.4150    -7.5450 c3         1 9EK       0.048500
      8 C19          1.3800     3.5680    -7.0520 c3         1 9EK       0.048500
      9 C21          2.0490    -0.1140     1.2070 ca         1 9EK      -0.094400
     10 C22          1.3650    -0.3890     2.3830 ca         1 9EK      -0.135000
     11 C24          4.1180    -0.0530     2.4190 ca         1 9EK      -0.121000
     12 C30          5.7050     0.5970     6.3670 c3         1 9EK       0.212900
     13 C32          4.0320    -0.8990     7.2030 c3         1 9EK       0.212900
     14 C33          3.2200    -0.7300     5.9160 c3         1 9EK       0.094300
     15 N2           1.3480     0.0000     0.0000 n          1 9EK       0.031000
     16 O3          -0.6060     0.0000     1.0530 o          1 9EK      -0.623100
     17 C4          -0.7390     0.0060    -1.2770 ca         1 9EK      -0.185600
     18 C5          -0.2200     0.6950    -2.3610 ca         1 9EK      -0.010000
     19 C6          -2.6770    -0.7140    -2.5330 ca         1 9EK      -0.187000
     20 N12         -1.8110     0.8700    -5.5850 na         1 9EK       0.631800
     21 N13         -2.6260     0.1460    -4.9050 nc         1 9EK      -0.425400
     22 N15          0.3700     2.6360    -6.5170 n          1 9EK      -0.176800
     23 C17         -0.2760     3.2740    -8.7680 c3         1 9EK      -0.030900
     24 C18          0.6390     4.3670    -8.1540 c3         1 9EK      -0.030900
     25 O20          1.3350     2.2660    -4.5510 o          1 9EK      -0.635100
     26 C23          3.4340    -0.3290     3.5950 ca         1 9EK      -0.006400
     27 C25          2.0550    -0.4960     3.5740 ca         1 9EK      -0.121000
     28 C26          3.4280     0.0530     1.2280 ca         1 9EK      -0.135000
     29 N28          4.1330    -0.4370     4.8020 nh         1 9EK      -0.360000
     30 C29          4.9100     0.7820     5.0720 c3         1 9EK       0.094300
     31 O31          4.8040     0.2830     7.4320 os         1 9EK      -0.411600
     32 H1          -1.6260     2.7220    -7.1680 h1         1 9EK       0.021450
     33 H2          -0.6790     1.3680    -7.8230 h1         1 9EK       0.021450
     34 H3           2.2090     3.0180    -7.4810 h1         1 9EK       0.021450
     35 H4           1.7250     4.2360    -6.2730 h1         1 9EK       0.021450
     36 H5           0.2900    -0.5200     2.3670 ha         1 9EK       0.152500
     37 H6           5.1930     0.0770     2.4350 ha         1 9EK       0.115500
     38 H7           2.2440     1.1670    -1.4890 h1         1 9EK       0.031700
     39 H8           1.5040    -0.3350    -2.0600 h1         1 9EK       0.031700
     40 H9           3.0360    -0.3840    -1.1770 h1         1 9EK       0.031700
     41 H10          6.4140    -0.2120     6.2440 h1         1 9EK       0.012450
     42 H11          6.2320     1.5150     6.6010 h1         1 9EK       0.012450
     43 H12          3.3580    -1.0570     8.0370 h1         1 9EK       0.012450
     44 H13          4.6950    -1.7500     7.1020 h1         1 9EK       0.012450
     45 H14          2.5220     0.0900     6.0350 h1         1 9EK       0.026700
     46 H15          2.6790    -1.6450     5.7080 h1         1 9EK       0.026700
     47 H16          0.6330     1.3490    -2.2290 ha         1 9EK       0.147000
     48 H17         -3.6140    -1.2570    -2.5820 ha         1 9EK       0.123000
     49 H18         -3.3760    -1.3330    -0.2910 ho         1 9EK       0.404000
     50 H19         -1.9490     1.1210    -6.5440 hn         1 9EK       0.153700
     51 H20          0.2690     2.6830    -9.4940 hc         1 9EK       0.028700
     52 H21         -1.1580     3.7200    -9.2120 hc         1 9EK       0.028700
     53 H22          0.0490     5.1650    -7.7210 hc         1 9EK       0.028700
     54 H23          1.3360     4.7450    -8.8920 hc         1 9EK       0.028700
     55 H24          1.5220    -0.7110     4.4920 ha         1 9EK       0.115500
     56 H25          3.9620     0.2680     0.3100 ha         1 9EK       0.152500
     57 H26          4.2360     1.6230     5.1790 h1         1 9EK       0.026700
     58 H27          5.5950     0.9620     4.2520 h1         1 9EK       0.026700
     59 O8          -2.4330    -1.3590    -0.2910 oh         1 9EK      -0.460100
     60 C27          2.0810     0.1200    -1.2640 c3         1 9EK       0.014300
@<TRIPOS>BOND
     1     1    15 1   
     2     1    16 2   
     3     1    17 1   
     4     2    17 ar  
     5     2    19 ar  
     6     2    59 1   
     7     3     4 ar  
     8     3    19 ar  
     9     3    21 2   
    10     4     5 2   
    11     4    18 ar  
    12     5     6 1   
    13     5    20 1   
    14     6    22 1   
    15     6    25 2   
    16     7    22 1   
    17     7    23 1   
    18     7    32 1   
    19     7    33 1   
    20     8    22 1   
    21     8    24 1   
    22     8    34 1   
    23     8    35 1   
    24     9    10 ar  
    25     9    15 1   
    26     9    28 ar  
    27    10    27 ar  
    28    10    36 1   
    29    11    26 ar  
    30    11    28 ar  
    31    11    37 1   
    32    12    30 1   
    33    12    31 1   
    34    12    41 1   
    35    12    42 1   
    36    13    14 1   
    37    13    31 1   
    38    13    43 1   
    39    13    44 1   
    40    14    29 1   
    41    14    45 1   
    42    14    46 1   
    43    15    60 1   
    44    17    18 ar  
    45    18    47 1   
    46    19    48 1   
    47    20    21 1   
    48    20    50 1   
    49    23    24 1   
    50    23    51 1   
    51    23    52 1   
    52    24    53 1   
    53    24    54 1   
    54    26    27 ar  
    55    26    29 1   
    56    27    55 1   
    57    28    56 1   
    58    29    30 1   
    59    30    57 1   
    60    30    58 1   
    61    38    60 1   
    62    39    60 1   
    63    40    60 1   
    64    49    59 1   
@<TRIPOS>SUBSTRUCTURE
     1 9EK         1 TEMP              0 ****  ****    0 ROOT
