@<TRIPOS>MOLECULE
molecule
   63    67     1     0     0
SMALL
bcc


@<TRIPOS>ATOM
      1 C15          0.0000     0.0000     0.0000 c3         1 9EM      -0.084100
      2 C19          2.0420    -1.2460    -0.7250 c3         1 9EM      -0.084100
      3 C23          2.0330     0.0000     1.4180 c          1 9EM       0.698500
      4 C11          3.6030     1.8720     1.0460 c3         1 9EM       0.096000
      5 C34          4.3440     0.3170     5.7680 ca         1 9EM      -0.105000
      6 C27          4.3750    -0.3290     3.4620 ca         1 9EM      -0.109000
      7 C33          3.4060     1.3100     5.4790 ca         1 9EM      -0.030800
      8 O1           0.0490     1.6470    -1.5920 o          1 9EM      -0.599100
      9 C2           1.2210     1.9350    -1.4830 c          1 9EM       0.668100
     10 C3           1.7840     3.1080    -2.2440 c3         1 9EM      -0.173100
     11 N7           2.0220     1.2070    -0.6800 n          1 9EM      -0.499800
     12 C8           3.4240     1.5880    -0.4460 c3         1 9EM       0.085000
     13 C14          1.5300     0.0000     0.0000 c3         1 9EM       0.064400
     14 O24          1.5470    -0.7850     2.2040 o          1 9EM      -0.620500
     15 N25          2.9930     0.8210     1.8480 n          1 9EM      -0.397000
     16 C26          3.4450     0.6600     3.1630 ca         1 9EM       0.043600
     17 C29          4.8250    -0.4920     4.7580 ca         1 9EM      -0.125000
     18 C31          2.9560     1.4780     4.1690 ca         1 9EM      -0.103000
     19 C36          2.8890     2.1780     6.5570 cc         1 9EM      -0.001300
     20 C37          1.9640     3.1890     6.4000 cc         1 9EM      -0.172000
     21 C39          1.7460     3.7660     7.6600 cc         1 9EM      -0.045200
     22 C40          2.5580     3.0790     8.5670 cd         1 9EM      -0.241600
     23 C41          2.7760     3.1940     9.9560 cc         1 9EM       0.812200
     24 N42          2.1020     4.1490    10.6910 nv         1 9EM      -1.071500
     25 N45          3.6320     2.3740    10.5460 nd         1 9EM      -0.798000
     26 C46          4.2930     1.4450     9.8610 cd         1 9EM       0.676900
     27 N48          4.1370     1.2870     8.5750 nc         1 9EM      -0.555800
     28 N49          3.2450     2.1080     7.8700 na         1 9EM       0.239200
     29 C50          0.8330     4.8840     7.9710 cc         1 9EM       0.009900
     30 C51         -0.1680     4.8850     8.9180 cd         1 9EM      -0.324300
     31 C53         -0.7840     6.1370     8.8810 cd         1 9EM       0.338200
     32 N55         -0.1990     6.8650     7.9640 nc         1 9EM      -0.498800
     33 N56          0.8250     6.1120     7.3760 na         1 9EM       0.055400
     34 C57          1.7220     6.5590     6.3070 c3         1 9EM       0.032300
     35 C60          2.9000     7.3220     6.9160 c3         1 9EM       0.596900
     36 F61          3.5990     6.4810     7.7890 f          1 9EM      -0.219300
     37 F62          3.7560     7.7500     5.8950 f          1 9EM      -0.219300
     38 F63          2.4230     8.4330     7.6210 f          1 9EM      -0.219300
     39 H1          -0.3610    -0.1740    -1.0060 hc         1 9EM       0.054867
     40 H2          -0.3610     0.9590     0.3520 hc         1 9EM       0.054867
     41 H3          -0.3610    -0.7840     0.6540 hc         1 9EM       0.054867
     42 H4           1.4950    -2.1150    -0.3790 hc         1 9EM       0.054867
     43 H5           3.0970    -1.3770    -0.5170 hc         1 9EM       0.054867
     44 H6           1.8960    -1.1290    -1.7920 hc         1 9EM       0.054867
     45 H7           4.6610     1.9240     1.2740 h1         1 9EM       0.052200
     46 H8           3.1340     2.8190     1.2860 h1         1 9EM       0.052200
     47 H9           4.6980     0.1850     6.7830 ha         1 9EM       0.164000
     48 H10          4.7560    -0.9680     2.6740 ha         1 9EM       0.137000
     49 H11          2.6400     2.7860    -2.8240 hc         1 9EM       0.061700
     50 H12          1.0260     3.5040    -2.9100 hc         1 9EM       0.061700
     51 H13          2.0890     3.8780    -1.5460 hc         1 9EM       0.061700
     52 H14          3.6590     2.4790    -1.0160 h1         1 9EM       0.062200
     53 H15          4.0770     0.7760    -0.7430 h1         1 9EM       0.062200
     54 H16          5.5520    -1.2630     4.9840 ha         1 9EM       0.137000
     55 H17          2.2300     2.2480     3.9380 ha         1 9EM       0.138000
     56 H18          1.4160     3.4140     5.4930 ha         1 9EM       0.166000
     57 H19          1.2700     3.9010    11.1880 hn         1 9EM       0.453800
     58 H20          2.4820     5.0700    10.7810 hn         1 9EM       0.453800
     59 H21          4.9840     0.7970    10.3880 h5         1 9EM       0.078100
     60 H22         -0.4290     4.0630     9.5740 ha         1 9EM       0.158000
     61 H23         -1.6100     6.4530     9.5060 h4         1 9EM       0.051100
     62 H24          2.0910     5.6990     5.7620 h1         1 9EM       0.099700
     63 H25          1.1810     7.2100     5.6300 h1         1 9EM       0.099700
@<TRIPOS>BOND
     1    37    35 1
     2    38    35 1
     3    36    35 1
     4    35    34 1
     5     8     9 2
     6     1    13 1
     7    34    33 1
     8    32    33 1
     9    32    31 2
    10    33    29 1
    11    24    23 1
    12     9    10 1
    13     9    11 1
    14    31    30 1
    15    29    30 2
    16    29    21 1
    17    23    25 2
    18    23    22 1
    19    13    11 1
    20    13     2 1
    21    13     3 1
    22    25    26 1
    23    11    12 1
    24    22    21 2
    25    22    28 1
    26    21    20 1
    27    26    27 2
    28     3    14 2
    29     3    15 1
    30    28    27 1
    31    28    19 1
    32    20    19 2
    33     4    15 1
    34     4    12 1
    35    15    16 1
    36    19     7 1
    37    18    16 ar
    38    18     7 ar
    39    16     6 ar
    40     7     5 ar
    41     6    17 ar
    42     5    17 ar
    43     1    39 1
    44     1    40 1
    45     1    41 1
    46     2    42 1
    47     2    43 1
    48     2    44 1
    49     4    45 1
    50     4    46 1
    51     5    47 1
    52     6    48 1
    53    10    49 1
    54    10    50 1
    55    10    51 1
    56    12    52 1
    57    12    53 1
    58    17    54 1
    59    18    55 1
    60    20    56 1
    61    24    57 1
    62    24    58 1
    63    26    59 1
    64    30    60 1
    65    31    61 1
    66    34    62 1
    67    34    63 1
@<TRIPOS>SUBSTRUCTURE
     1 9EM         1 TEMP              0 ****  ****    0 ROOT
