@<TRIPOS>MOLECULE
9EM
   63    67     1     0     0
SMALL
bcc


@<TRIPOS>ATOM
      1 C15          0.0000     0.0000     0.0000 c3         1 9EM      -0.008100
      2 C19          2.0420    -1.2460    -0.7250 c3         1 9EM      -0.008100
      3 C23          2.0330     0.0000     1.4180 c          1 9EM       0.606500
      4 C11          3.6030     1.8720     1.0460 c3         1 9EM       0.034000
      5 C34          4.3440     0.3170     5.7680 ca         1 9EM      -0.098000
      6 C27          4.3750    -0.3290     3.4620 ca         1 9EM      -0.078000
      7 C33          3.4060     1.3100     5.4790 ca         1 9EM      -0.012800
      8 O1           0.0490     1.6470    -1.5920 o          1 9EM      -0.632100
      9 C2           1.2210     1.9350    -1.4830 c          1 9EM       0.598100
     10 C3           1.7840     3.1080    -2.2440 c3         1 9EM      -0.078100
     11 N7           2.0220     1.2070    -0.6800 n          1 9EM      -0.169800
     12 C8           3.4240     1.5880    -0.4460 c3         1 9EM       0.030000
     13 C14          1.5300     0.0000     0.0000 c3         1 9EM      -0.033600
     14 O24          1.5470    -0.7850     2.2040 o          1 9EM      -0.658500
     15 N25          2.9930     0.8210     1.8480 n          1 9EM      -0.021000
     16 C26          3.4450     0.6600     3.1630 ca         1 9EM      -0.082400
     17 C29          4.8250    -0.4920     4.7580 ca         1 9EM      -0.089000
     18 C31          2.9560     1.4780     4.1690 ca         1 9EM      -0.078000
     19 C36          2.8890     2.1780     6.5570 cc         1 9EM      -0.206300
     20 C37          1.9640     3.1890     6.4000 cd         1 9EM      -0.143000
     21 C39          1.7460     3.7660     7.6600 cd         1 9EM      -0.028200
     22 C40          2.5580     3.0790     8.5670 cc         1 9EM      -0.439600
     23 C41          2.7760     3.1940     9.9560 cc         1 9EM       0.672200
     24 N42          2.1020     4.1490    10.6910 nv         1 9EM      -0.654500
     25 N45          3.6320     2.3740    10.5460 nd         1 9EM      -0.717000
     26 C46          4.2930     1.4450     9.8610 cd         1 9EM       0.717900
     27 N48          4.1370     1.2870     8.5750 nc         1 9EM      -0.702800
     28 N49          3.2450     2.1080     7.8700 na         1 9EM       0.766200
     29 C50          0.8330     4.8840     7.9710 cd         1 9EM      -0.136100
     30 C51         -0.1680     4.8850     8.9180 cc         1 9EM      -0.317300
     31 C53         -0.7840     6.1370     8.8810 cc         1 9EM       0.405200
     32 N55         -0.1990     6.8650     7.9640 nd         1 9EM      -0.638800
     33 N56          0.8250     6.1120     7.3760 na         1 9EM       0.475400
     34 C57          1.7220     6.5590     6.3070 c3         1 9EM      -0.069700
     35 C60          2.9000     7.3220     6.9160 c3         1 9EM       0.557900
     36 F61          3.5990     6.4810     7.7890 f          1 9EM      -0.201633
     37 F62          3.7560     7.7500     5.8950 f          1 9EM      -0.201633
     38 F63          2.4230     8.4330     7.6210 f          1 9EM      -0.201633
     39 H1          -0.3610    -0.1740    -1.0060 hc         1 9EM       0.025200
     40 H2          -0.3610     0.9590     0.3520 hc         1 9EM       0.025200
     41 H3          -0.3610    -0.7840     0.6540 hc         1 9EM       0.025200
     42 H4           1.4950    -2.1150    -0.3790 hc         1 9EM       0.025200
     43 H5           3.0970    -1.3770    -0.5170 hc         1 9EM       0.025200
     44 H6           1.8960    -1.1290    -1.7920 hc         1 9EM       0.025200
     45 H7           4.6610     1.9240     1.2740 h1         1 9EM       0.023700
     46 H8           3.1340     2.8190     1.2860 h1         1 9EM       0.023700
     47 H9           4.6980     0.1850     6.7830 ha         1 9EM       0.140000
     48 H10          4.7560    -0.9680     2.6740 ha         1 9EM       0.108000
     49 H11          2.6400     2.7860    -2.8240 hc         1 9EM       0.025367
     50 H12          1.0260     3.5040    -2.9100 hc         1 9EM       0.025367
     51 H13          2.0890     3.8780    -1.5460 hc         1 9EM       0.025367
     52 H14          3.6590     2.4790    -1.0160 h1         1 9EM       0.035700
     53 H15          4.0770     0.7760    -0.7430 h1         1 9EM       0.035700
     54 H16          5.5520    -1.2630     4.9840 ha         1 9EM       0.107000
     55 H17          2.2300     2.2480     3.9380 ha         1 9EM       0.112000
     56 H18          1.4160     3.4140     5.4930 ha         1 9EM       0.139000
     57 H19          1.2700     3.9010    11.1880 hn         1 9EM       0.295300
     58 H20          2.4820     5.0700    10.7810 hn         1 9EM       0.295300
     59 H21          4.9840     0.7970    10.3880 h5         1 9EM       0.010100
     60 H22         -0.4290     4.0630     9.5740 ha         1 9EM       0.139000
     61 H23         -1.6100     6.4530     9.5060 h4         1 9EM       0.006100
     62 H24          2.0910     5.6990     5.7620 h1         1 9EM       0.072200
     63 H25          1.1810     7.2100     5.6300 h1         1 9EM       0.072200
@<TRIPOS>BOND
     1     1    13 1   
     2     1    39 1   
     3     1    40 1   
     4     1    41 1   
     5     2    13 1   
     6     2    42 1   
     7     2    43 1   
     8     2    44 1   
     9     3    13 1   
    10     3    14 2   
    11     3    15 1   
    12     4    12 1   
    13     4    15 1   
    14     4    45 1   
    15     4    46 1   
    16     5     7 ar  
    17     5    17 ar  
    18     5    47 1   
    19     6    16 ar  
    20     6    17 ar  
    21     6    48 1   
    22     7    18 ar  
    23     7    19 1   
    24     8     9 2   
    25     9    10 1   
    26     9    11 1   
    27    10    49 1   
    28    10    50 1   
    29    10    51 1   
    30    11    12 1   
    31    11    13 1   
    32    12    52 1   
    33    12    53 1   
    34    15    16 1   
    35    16    18 ar  
    36    17    54 1   
    37    18    55 1   
    38    19    20 2   
    39    19    28 1   
    40    20    21 1   
    41    20    56 1   
    42    21    22 2   
    43    21    29 1   
    44    22    23 1   
    45    22    28 1   
    46    23    24 1   
    47    23    25 2   
    48    24    57 1   
    49    24    58 1   
    50    25    26 1   
    51    26    27 2   
    52    26    59 1   
    53    27    28 1   
    54    29    30 2   
    55    29    33 1   
    56    30    31 1   
    57    30    60 1   
    58    31    32 2   
    59    31    61 1   
    60    32    33 1   
    61    33    34 1   
    62    34    35 1   
    63    34    62 1   
    64    34    63 1   
    65    35    36 1   
    66    35    37 1   
    67    35    38 1   
@<TRIPOS>SUBSTRUCTURE
     1 9EM         1 TEMP              0 ****  ****    0 ROOT
