@<TRIPOS>MOLECULE
molecule
   44    46     1     0     0
SMALL
bcc


@<TRIPOS>ATOM
      1 C13          0.0000     0.0000     0.0000 ca         1 9EN      -0.204000
      2 C15          0.0070     0.0110     2.4010 ca         1 9EN       0.017600
      3 C17          2.0830     0.0000     1.2020 ca         1 9EN      -0.187000
      4 C20         -1.4260    -1.3560     5.5070 c3         1 9EN       0.025700
      5 C22         -1.5550     1.4640     5.4040 c3         1 9EN       0.025700
      6 C01          5.4920     2.2630    -6.8830 c3         1 9EN      -0.169100
      7 C02          5.3220     2.2710    -5.3840 c          1 9EN       0.659100
      8 O03          5.7690     3.1880    -4.7290 o          1 9EN      -0.607100
      9 C05          4.5280     1.2560    -3.3170 c3         1 9EN       0.107000
     10 C06          3.7720    -0.0010    -2.8830 c3         1 9EN       0.095100
     11 C07          3.5520    -0.0010    -1.3580 c3         1 9EN       0.064000
     12 N08          2.0880    -0.0010    -1.2140 n          1 9EN      -0.413000
     13 C09          1.5340    -0.0020    -2.4340 c          1 9EN       0.832600
     14 O10          0.3320    -0.0010    -2.6160 o          1 9EN      -0.609500
     15 O11          2.4250    -0.0040    -3.4360 os         1 9EN      -0.370900
     16 C12          1.3880     0.0000     0.0000 ca         1 9EN       0.119600
     17 C14         -0.6900     0.0060     1.1980 ca         1 9EN       0.189900
     18 C16          1.3950     0.0120     2.3990 ca         1 9EN      -0.110000
     19 N18         -0.6930     0.0240     3.6150 nh         1 9EN      -0.620000
     20 C19         -0.3610    -1.1520     4.4240 c3         1 9EN       0.167300
     21 S21         -1.4240     0.0980     6.5980 ss         1 9EN      -0.366200
     22 C23         -0.4720     1.2800     4.3360 c3         1 9EN       0.167300
     23 F24         -2.0420     0.0060     1.1990 f          1 9EN      -0.117900
     24 H1          -0.5420    -0.0020    -0.9380 ha         1 9EN       0.203000
     25 H2           3.1660     0.0000     1.2000 ha         1 9EN       0.134000
     26 H3          -2.3990    -1.4620     5.0440 h1         1 9EN       0.079700
     27 H4          -1.1920    -2.2430     6.0830 h1         1 9EN       0.079700
     28 H5          -2.5320     1.4470     4.9370 h1         1 9EN       0.079700
     29 H6          -1.4050     2.4080     5.9140 h1         1 9EN       0.079700
     30 H7           6.0670     3.1300    -7.1850 hc         1 9EN       0.063367
     31 H8           4.5180     2.2930    -7.3560 hc         1 9EN       0.063367
     32 H9           6.0120     1.3620    -7.1820 hc         1 9EN       0.063367
     33 H10          4.3510     0.4770    -5.3110 hn         1 9EN       0.323500
     34 H11          5.5040     1.2700    -2.8490 h1         1 9EN       0.068200
     35 H12          3.9700     2.1350    -3.0150 h1         1 9EN       0.068200
     36 H13          4.3060    -0.8940    -3.1860 h1         1 9EN       0.086700
     37 H14          3.9060    -0.9550    -0.9870 h1         1 9EN       0.082700
     38 H15          3.9060     0.9540    -0.9880 h1         1 9EN       0.082700
     39 H16          1.9380     0.0140     3.3360 ha         1 9EN       0.143000
     40 H17         -0.3260    -2.0270     3.7860 h1         1 9EN       0.048200
     41 H18          0.6040    -1.0040     4.8930 h1         1 9EN       0.048200
     42 H19          0.5010     1.2530     4.8120 h1         1 9EN       0.048200
     43 H20         -0.5130     2.1060     3.6360 h1         1 9EN       0.048200
     44 N04          4.6840     1.2540    -4.7740 ns         1 9EN      -0.588900
@<TRIPOS>BOND
     1    21     5 1
     2    21     4 1
     3     5    22 1
     4    22    19 1
     5    23    17 1
     6     4    20 1
     7    20    19 1
     8    19     2 1
     9    17     2 ar
    10    17     1 ar
    11     2    18 ar
    12    14    13 2
    13     1    16 ar
    14    18     3 ar
    15    13    12 1
    16    13    15 1
    17    16     3 ar
    18    16    12 1
    19    12    11 1
    20    15    10 1
    21    11    10 1
    22    10     9 1
    23    44     9 1
    24    44     7 1
    25     7     6 1
    26     7     8 2
    27     1    24 1
    28     3    25 1
    29     4    26 1
    30     4    27 1
    31     5    28 1
    32     5    29 1
    33     6    30 1
    34     6    31 1
    35     6    32 1
    36    44    33 1
    37     9    34 1
    38     9    35 1
    39    10    36 1
    40    11    37 1
    41    11    38 1
    42    18    39 1
    43    20    40 1
    44    20    41 1
    45    22    42 1
    46    22    43 1
@<TRIPOS>SUBSTRUCTURE
     1 9EN         1 TEMP              0 ****  ****    0 ROOT
