@<TRIPOS>MOLECULE
9EN
   44    46     1     0     0
SMALL
bcc


@<TRIPOS>ATOM
      1 C13          0.0000     0.0000     0.0000 ca         1 9EN      -0.185000
      2 C15          0.0070     0.0110     2.4010 ca         1 9EN      -0.051400
      3 C17          2.0830     0.0000     1.2020 ca         1 9EN      -0.160000
      4 C20         -1.4260    -1.3560     5.5070 c3         1 9EN       0.094200
      5 C22         -1.5550     1.4640     5.4040 c3         1 9EN       0.094200
      6 C01          5.4920     2.2630    -6.8830 c3         1 9EN      -0.065100
      7 C02          5.3220     2.2710    -5.3840 c          1 9EN       0.573100
      8 O03          5.7690     3.1880    -4.7290 o          1 9EN      -0.646100
      9 C05          4.5280     1.2560    -3.3170 c3         1 9EN       0.040000
     10 C06          3.7720    -0.0010    -2.8830 c3         1 9EN       0.140100
     11 C07          3.5520    -0.0010    -1.3580 c3         1 9EN       0.000000
     12 N08          2.0880    -0.0010    -1.2140 n          1 9EN      -0.034000
     13 C09          1.5340    -0.0020    -2.4340 c          1 9EN       0.774600
     14 O10          0.3320    -0.0010    -2.6160 o          1 9EN      -0.660500
     15 O11          2.4250    -0.0040    -3.4360 os         1 9EN      -0.366900
     16 C12          1.3880     0.0000     0.0000 ca         1 9EN      -0.012400
     17 C14         -0.6900     0.0060     1.1980 ca         1 9EN       0.171900
     18 C16          1.3950     0.0120     2.3990 ca         1 9EN      -0.078000
     19 N18         -0.6930     0.0240     3.6150 nh         1 9EN      -0.391000
     20 C19         -0.3610    -1.1520     4.4240 c3         1 9EN       0.141300
     21 S21         -1.4240     0.0980     6.5980 ss         1 9EN      -0.415200
     22 C23         -0.4720     1.2800     4.3360 c3         1 9EN       0.141300
     23 F24         -2.0420     0.0060     1.1990 f          1 9EN      -0.115900
     24 H1          -0.5420    -0.0020    -0.9380 ha         1 9EN       0.188000
     25 H2           3.1660     0.0000     1.2000 ha         1 9EN       0.113000
     26 H3          -2.3990    -1.4620     5.0440 h1         1 9EN       0.053700
     27 H4          -1.1920    -2.2430     6.0830 h1         1 9EN       0.053700
     28 H5          -2.5320     1.4470     4.9370 h1         1 9EN       0.053700
     29 H6          -1.4050     2.4080     5.9140 h1         1 9EN       0.053700
     30 H7           6.0670     3.1300    -7.1850 hc         1 9EN       0.024367
     31 H8           4.5180     2.2930    -7.3560 hc         1 9EN       0.024367
     32 H9           6.0120     1.3620    -7.1820 hc         1 9EN       0.024367
     33 H10          4.3510     0.4770    -5.3110 hn         1 9EN       0.183500
     34 H11          5.5040     1.2700    -2.8490 h1         1 9EN       0.038200
     35 H12          3.9700     2.1350    -3.0150 h1         1 9EN       0.038200
     36 H13          4.3060    -0.8940    -3.1860 h1         1 9EN       0.046700
     37 H14          3.9060    -0.9550    -0.9870 h1         1 9EN       0.051200
     38 H15          3.9060     0.9540    -0.9880 h1         1 9EN       0.051200
     39 H16          1.9380     0.0140     3.3360 ha         1 9EN       0.116000
     40 H17         -0.3260    -2.0270     3.7860 h1         1 9EN       0.024700
     41 H18          0.6040    -1.0040     4.8930 h1         1 9EN       0.024700
     42 H19          0.5010     1.2530     4.8120 h1         1 9EN       0.024700
     43 H20         -0.5130     2.1060     3.6360 h1         1 9EN       0.024700
     44 N04          4.6840     1.2540    -4.7740 ns         1 9EN      -0.200900
@<TRIPOS>BOND
     1     1    16 ar  
     2     1    17 ar  
     3     1    24 1   
     4     2    17 ar  
     5     2    18 ar  
     6     2    19 1   
     7     3    16 ar  
     8     3    18 ar  
     9     3    25 1   
    10     4    20 1   
    11     4    21 1   
    12     4    26 1   
    13     4    27 1   
    14     5    21 1   
    15     5    22 1   
    16     5    28 1   
    17     5    29 1   
    18     6     7 1   
    19     6    30 1   
    20     6    31 1   
    21     6    32 1   
    22     7     8 2   
    23     7    44 1   
    24     9    10 1   
    25     9    34 1   
    26     9    35 1   
    27     9    44 1   
    28    10    11 1   
    29    10    15 1   
    30    10    36 1   
    31    11    12 1   
    32    11    37 1   
    33    11    38 1   
    34    12    13 1   
    35    12    16 1   
    36    13    14 2   
    37    13    15 1   
    38    17    23 1   
    39    18    39 1   
    40    19    20 1   
    41    19    22 1   
    42    20    40 1   
    43    20    41 1   
    44    22    42 1   
    45    22    43 1   
    46    33    44 1   
@<TRIPOS>SUBSTRUCTURE
     1 9EN         1 TEMP              0 ****  ****    0 ROOT
