@<TRIPOS>MOLECULE
9EP
   43    44     1     0     0
SMALL
bcc


@<TRIPOS>ATOM
      1 CAA          0.0000     0.0000     0.0000 c          1 9EP       0.689100
      2 OAB          1.3420     0.0000     0.0000 os         1 9EP      -0.415900
      3 CAC          2.0020     0.0000     1.2940 c3         1 9EP       0.283600
      4 CAD          3.4910    -0.1120     1.0990 c2         1 9EP      -0.319400
      5 SAE          5.7380    -1.5810     0.6830 ss         1 9EP      -0.479200
      6 CAF          4.2400     0.8110     1.6560 ce         1 9EP       0.016800
      7 CAG          3.5310     1.8690     2.3980 c          1 9EP       0.961800
      8 OAH          3.3460     1.7540     3.5940 o          1 9EP      -0.864800
      9 OAI          3.0860     2.9650     1.7510 o          1 9EP      -0.864800
     10 NAJ          5.6260     0.9020     1.6240 nu         1 9EP      -0.396000
     11 CAK          6.4130     0.1110     0.6670 c3         1 9EP       0.252600
     12 CAL          7.8830     0.0900     1.0900 c3         1 9EP      -0.097300
     13 NAM          8.6470    -0.7440     0.1580 ns         1 9EP      -0.167900
     14 CAN          9.9680    -0.5350    -0.0060 c          1 9EP       0.571100
     15 CAO          7.9990    -0.4770     2.4810 c          1 9EP       0.660900
     16 OAP          8.6510    -1.4760     2.6740 o          1 9EP      -0.554100
     17 CAQ         -0.7540    -0.0010    -1.3050 c3         1 9EP      -0.044100
     18 CAR          3.9910    -1.2730     0.2880 c3         1 9EP       0.215900
     19 OAS         -0.6040    -0.0070     1.0460 o          1 9EP      -0.598000
     20 CAT         10.7530    -1.3930    -0.9640 c3         1 9EP      -0.000100
     21 OAU         10.5260     0.3430     0.6190 o          1 9EP      -0.647100
     22 CAV         12.1970    -0.9580    -0.9610 cc         1 9EP       0.054600
     23 CAW         13.1430    -1.4410    -0.1560 cd         1 9EP      -0.124000
     24 SAX         12.8910     0.2590    -2.0240 ss         1 9EP      -0.281800
     25 CAY         14.4740     0.0430    -1.2870 cc         1 9EP      -0.005100
     26 CAZ         14.4000    -0.8880    -0.3340 cd         1 9EP      -0.120000
     27 HAC          1.7740     0.9220     1.8150 h1         1 9EP       0.039700
     28 HACA         1.6500    -0.8410     1.8780 h1         1 9EP       0.039700
     29 HNAJ         6.0950     1.5140     2.2620 hn         1 9EP       0.304800
     30 HAK          6.3160     0.5350    -0.3250 h2         1 9EP       0.050700
     31 HAL          8.2770     1.0990     1.0780 h1         1 9EP       0.078700
     32 HNAM         8.1850    -1.4580    -0.3690 hn         1 9EP       0.195500
     33 HAO          7.5370     0.0380     3.3150 h4         1 9EP      -0.016800
     34 HAQ         -0.5720    -0.9330    -1.8260 hc         1 9EP       0.018700
     35 HAQA        -1.8140     0.1040    -1.1090 hc         1 9EP       0.018700
     36 HAQB        -0.4160     0.8270    -1.9170 hc         1 9EP       0.018700
     37 HAR          3.8960    -1.0430    -0.7660 h1         1 9EP       0.038700
     38 HARA         3.4080    -2.1550     0.5250 h1         1 9EP       0.038700
     39 HAT         10.3460    -1.2850    -1.9630 hc         1 9EP       0.034700
     40 HATA        10.6880    -2.4300    -0.6580 hc         1 9EP       0.034700
     41 HAW         12.9430    -2.2070     0.5840 ha         1 9EP       0.124000
     42 HAY         15.3710     0.5810    -1.5660 h4         1 9EP       0.142000
     43 HAZ         15.2580    -1.1880     0.2540 ha         1 9EP       0.113000
@<TRIPOS>BOND
     1     1     2 1   
     2     1    17 1   
     3     1    19 2   
     4     2     3 1   
     5     3     4 1   
     6     3    27 1   
     7     3    28 1   
     8     4     6 2   
     9     4    18 1   
    10     5    11 1   
    11     5    18 1   
    12     6     7 1   
    13     6    10 1   
    14     7     8 1   
    15     7     9 1   
    16    10    11 1   
    17    10    29 1   
    18    11    12 1   
    19    11    30 1   
    20    12    13 1   
    21    12    15 1   
    22    12    31 1   
    23    13    14 1   
    24    13    32 1   
    25    14    20 1   
    26    14    21 2   
    27    15    16 2   
    28    15    33 1   
    29    17    34 1   
    30    17    35 1   
    31    17    36 1   
    32    18    37 1   
    33    18    38 1   
    34    20    22 1   
    35    20    39 1   
    36    20    40 1   
    37    22    23 2   
    38    22    24 1   
    39    23    26 1   
    40    23    41 1   
    41    24    25 1   
    42    25    26 2   
    43    25    42 1   
    44    26    43 1   
@<TRIPOS>SUBSTRUCTURE
     1 9EP         1 TEMP              0 ****  ****    0 ROOT
