@<TRIPOS>MOLECULE
molecule
   73    75     1     0     0
SMALL
bcc


@<TRIPOS>ATOM
      1 CAK          0.0000     0.0000     0.0000 c3         1 9ER      -0.083600
      2 CAJ          1.5300     0.0000     0.0000 c3         1 9ER      -0.038900
      3 CAL          2.0410     0.0000     1.4420 c3         1 9ER      -0.083600
      4 CAH          2.0320    -1.2300    -0.7110 ca         1 9ER      -0.046800
      5 CAI          1.7620    -2.4830    -0.1990 ca         1 9ER      -0.130000
      6 CAD          2.2230    -3.6130    -0.8500 ca         1 9ER      -0.068300
      7 CAB          1.9240    -4.9780    -0.2860 c3         1 9ER      -0.031400
      8 CAA          1.1270    -5.7900    -1.3100 c3         1 9ER      -0.085100
      9 CAC          3.2360    -5.6990     0.0270 c3         1 9ER      -0.085100
     10 CAE          2.9570    -3.4950    -2.0170 ca         1 9ER      -0.130000
     11 CAF          3.2330    -2.2480    -2.5380 ca         1 9ER      -0.046800
     12 CBE          4.0320    -2.1200    -3.8080 c3         1 9ER      -0.038900
     13 CBF          5.3590    -2.8680    -3.6540 c3         1 9ER      -0.083600
     14 CBG          3.2410    -2.7220    -4.9720 c3         1 9ER      -0.083600
     15 CAG          2.7670    -1.1050    -1.8890 ca         1 9ER      -0.125500
     16 CAM          3.0610     0.2380    -2.4430 cc         1 9ER       0.469800
     17 NAQ          3.6970     1.1760    -1.7430 nc         1 9ER      -0.771000
     18 CAN          2.7090     0.5940    -3.6920 cd         1 9ER      -0.207400
     19 SAO          3.2340     2.2540    -3.9620 ss         1 9ER      -0.280300
     20 CAP          3.8970     2.3140    -2.3320 cd         1 9ER       0.752300
     21 NAR          4.5380     3.4050    -1.7680 nh         1 9ER      -0.803300
     22 CAS          4.7020     4.6380    -2.5430 c3         1 9ER       0.235800
     23 CAT          3.4950     5.5500    -2.3130 c3         1 9ER       0.133800
     24 NAU          3.6600     6.7860    -3.0900 n3         1 9ER      -0.730600
     25 CAV          2.4250     7.5800    -3.0840 c3         1 9ER       0.149100
     26 CAW          4.7940     7.5740    -2.5890 c3         1 9ER       0.149100
     27 CAX          5.0490     3.3270    -0.3980 c3         1 9ER       0.294100
     28 CAY          6.4690     2.8250    -0.4200 ca         1 9ER      -0.242600
     29 CBD          6.7340     1.4660    -0.3520 ca         1 9ER      -0.065000
     30 CBC          8.0560     1.0490    -0.3750 ca         1 9ER      -0.258300
     31 CBB          9.0590     1.9960    -0.4650 ca         1 9ER       0.421200
     32 NBA          8.7700     3.2810    -0.5270 nb         1 9ER      -0.695000
     33 CAZ          7.5240     3.7130    -0.5130 ca         1 9ER       0.424200
     34 H1          -0.3610    -0.2270    -0.9960 hc         1 9ER       0.034783
     35 H2          -0.3610    -0.7490     0.6950 hc         1 9ER       0.034783
     36 H3          -0.3610     0.9760     0.3010 hc         1 9ER       0.034783
     37 H4           1.8910     0.8850    -0.5110 hc         1 9ER       0.073700
     38 H5           1.4520    -0.6910     2.0340 hc         1 9ER       0.034783
     39 H6           3.0800    -0.3060     1.4580 hc         1 9ER       0.034783
     40 H7           1.9520     0.9970     1.8570 hc         1 9ER       0.034783
     41 H8           1.1920    -2.5810     0.7170 ha         1 9ER       0.134000
     42 H9           1.3430    -4.8750     0.6230 hc         1 9ER       0.053700
     43 H10          0.6750    -6.6450    -0.8220 hc         1 9ER       0.035867
     44 H11          1.7900    -6.1310    -2.0960 hc         1 9ER       0.035867
     45 H12          0.3500    -5.1680    -1.7390 hc         1 9ER       0.035867
     46 H13          3.0370    -6.5490     0.6680 hc         1 9ER       0.035867
     47 H14          3.6890    -6.0420    -0.8960 hc         1 9ER       0.035867
     48 H15          3.9120    -5.0180     0.5290 hc         1 9ER       0.035867
     49 H16          3.3150    -4.3840    -2.5220 ha         1 9ER       0.134000
     50 H17          4.2290    -1.0740    -4.0080 hc         1 9ER       0.073700
     51 H18          5.7170    -2.7620    -2.6370 hc         1 9ER       0.034783
     52 H19          6.0890    -2.4540    -4.3390 hc         1 9ER       0.034783
     53 H20          5.2100    -3.9180    -3.8760 hc         1 9ER       0.034783
     54 H21          2.1890    -2.4880    -4.8530 hc         1 9ER       0.034783
     55 H22          3.5990    -2.3060    -5.9060 hc         1 9ER       0.034783
     56 H23          3.3730    -3.7970    -4.9810 hc         1 9ER       0.034783
     57 H24          2.1900    -0.0320    -4.4070 h4         1 9ER       0.186000
     58 H25          4.7750     4.3960    -3.5960 h1         1 9ER       0.065700
     59 H26          5.6040     5.1470    -2.2260 h1         1 9ER       0.065700
     60 H27          3.4220     5.7920    -1.2590 h1         1 9ER       0.042700
     61 H28          2.5930     5.0410    -2.6300 h1         1 9ER       0.042700
     62 H30          2.1920     7.8780    -2.0690 h1         1 9ER       0.034200
     63 H31          1.6110     6.9850    -3.4810 h1         1 9ER       0.034200
     64 H32          2.5590     8.4620    -3.6980 h1         1 9ER       0.034200
     65 H33          4.6780     8.6080    -2.8930 h1         1 9ER       0.034200
     66 H34          5.7170     7.1800    -2.9980 h1         1 9ER       0.034200
     67 H35          4.8240     7.5170    -1.5080 h1         1 9ER       0.034200
     68 H36          5.0210     4.3110     0.0540 h1         1 9ER       0.066200
     69 H37          4.4340     2.6470     0.1780 h1         1 9ER       0.066200
     70 H38          5.9270     0.7460    -0.2820 ha         1 9ER       0.162000
     71 H39          8.3000    -0.0050    -0.3240 ha         1 9ER       0.140000
     72 H40         10.0950     1.6790    -0.4810 h4         1 9ER       0.022100
     73 H41          7.3260     4.7770    -0.5660 h4         1 9ER       0.015100
@<TRIPOS>BOND
     1    14    12 1
     2    12    13 1
     3    12    11 1
     4     9     7 1
     5    10    11 ar
     6    10     6 ar
     7     8     7 1
     8    11    15 ar
     9     7     6 1
    10     6     5 ar
    11    18    16 2
    12    18    19 1
    13    15    16 1
    14    15     4 ar
    15    16    17 1
    16     5     4 ar
    17    19    20 1
    18    30    29 ar
    19    30    31 ar
    20     4     2 1
    21    29    28 ar
    22    17    20 2
    23    20    21 1
    24    31    32 ar
    25     1     2 1
    26     2     3 1
    27    21    27 1
    28    21    22 1
    29    28    27 1
    30    28    33 ar
    31    22    23 1
    32    32    33 ar
    33    23    24 1
    34    24    25 1
    35    24    26 1
    36     1    34 1
    37     1    35 1
    38     1    36 1
    39     2    37 1
    40     3    38 1
    41     3    39 1
    42     3    40 1
    43     5    41 1
    44     7    42 1
    45     8    43 1
    46     8    44 1
    47     8    45 1
    48     9    46 1
    49     9    47 1
    50     9    48 1
    51    10    49 1
    52    12    50 1
    53    13    51 1
    54    13    52 1
    55    13    53 1
    56    14    54 1
    57    14    55 1
    58    14    56 1
    59    18    57 1
    60    22    58 1
    61    22    59 1
    62    23    60 1
    63    23    61 1
    64    25    62 1
    65    25    63 1
    66    25    64 1
    67    26    65 1
    68    26    66 1
    69    26    67 1
    70    27    68 1
    71    27    69 1
    72    29    70 1
    73    30    71 1
    74    31    72 1
    75    33    73 1
@<TRIPOS>SUBSTRUCTURE
     1 9ER         1 TEMP              0 ****  ****    0 ROOT
