@<TRIPOS>MOLECULE
molecule
   79    82     1     0     0
SMALL
bcc


@<TRIPOS>ATOM
      1 C2           0.0000     0.0000     0.0000 c3         1 9ES       0.160300
      2 C3           1.5300     0.0000     0.0000 c3         1 9ES       0.163800
      3 C4           1.5310    -1.1820     2.1130 c3         1 9ES       0.163800
      4 C5           0.0000    -1.1820     2.1130 c3         1 9ES       0.160300
      5 C6           3.4140     0.0720     1.4270 ca         1 9ES       0.105600
      6 C9           6.1830     0.2280     1.4990 ca         1 9ES       0.088600
      7 C10          8.2740     0.8640     0.4690 ca         1 9ES       0.745200
      8 C11          9.6650     0.8350     0.4360 ca         1 9ES      -0.500600
      9 C12         10.3100     1.4110    -0.6520 ca         1 9ES       0.640200
     10 C13          8.2640     1.9720    -1.5500 ca         1 9ES       0.743900
     11 C21         14.5370     4.8120    -4.0950 ca         1 9ES       0.202100
     12 C22         14.8380     6.7710    -5.4080 c3         1 9ES       0.127200
     13 C25          5.5400    -0.3500     5.0100 c          1 9ES       0.657100
     14 C26          6.2030    -0.2260     6.3570 c3         1 9ES      -0.160400
     15 C27          5.3410    -0.9150     7.4170 c3         1 9ES      -0.077100
     16 C24          5.4570     0.1680     2.6880 ca         1 9ES       0.041600
     17 C28          4.0730     0.0890     2.6490 ca         1 9ES      -0.146000
     18 N1           2.0180     0.0000     1.3860 nh         1 9ES      -0.596000
     19 N           -0.4870    -1.1810     0.7250 n3         1 9ES      -0.734600
     20 C1          -1.9540    -1.2580     0.6830 c3         1 9ES       0.160800
     21 C           -2.4090    -2.6140     1.2250 c3         1 9ES      -0.094100
     22 C8           5.5210     0.2100     0.2810 ca         1 9ES      -0.091000
     23 C7           4.1410     0.1330     0.2440 ca         1 9ES      -0.186000
     24 N2           7.5830     0.3090     1.5350 nu         1 9ES      -0.765300
     25 N4           7.6160     1.4380    -0.5360 nb         1 9ES      -0.823000
     26 N3           9.5810     1.9640    -1.6180 nb         1 9ES      -0.761000
     27 N5          11.6990     1.4070    -0.7310 n          1 9ES      -0.464300
     28 C15         12.3170     2.0560    -1.7390 c          1 9ES       0.766100
     29 O           11.6620     2.6420    -2.5780 o          1 9ES      -0.539100
     30 N6          13.6640     2.0520    -1.8150 ns         1 9ES      -0.489100
     31 C16         14.3090     2.7880    -2.8160 ca         1 9ES       0.152600
     32 C23         13.8960     4.0830    -3.1030 ca         1 9ES      -0.051600
     33 Cl1         12.5800     4.7900    -2.2190 cl         1 9ES      -0.067900
     34 C20         15.5920     4.2490    -4.7960 ca         1 9ES      -0.318000
     35 C18         16.0060     2.9570    -4.5110 ca         1 9ES       0.202100
     36 C17         15.3630     2.2250    -3.5230 ca         1 9ES      -0.051600
     37 Cl          15.8800     0.6070    -3.1660 cl         1 9ES      -0.067900
     38 O1          17.0400     2.4060    -5.2000 os         1 9ES      -0.306900
     39 C19         17.6550     3.2170    -6.2040 c3         1 9ES       0.127200
     40 H1          -0.3600    -0.0300    -1.0210 h1         1 9ES       0.041950
     41 H2          -0.3600     0.8970     0.4890 h1         1 9ES       0.041950
     42 H3           1.8900     0.8860    -0.5080 h1         1 9ES       0.052700
     43 H4           1.8900    -0.8860    -0.5090 h1         1 9ES       0.052700
     44 H5           1.8910    -1.1510     3.1340 h1         1 9ES       0.052700
     45 H6           1.8910    -2.0790     1.6240 h1         1 9ES       0.052700
     46 H7          -0.3600    -0.2960     2.6210 h1         1 9ES       0.041950
     47 H8          -0.3600    -2.0680     2.6210 h1         1 9ES       0.041950
     48 H9          10.2300     0.3760     1.2390 ha         1 9ES       0.138000
     49 H10          7.6990     2.4310    -2.3530 h5         1 9ES       0.067100
     50 H11         13.3550     0.2490    -0.1890 h1         1 9ES       0.049700
     51 H12         11.8820    -0.0720     0.7370 h1         1 9ES       0.049700
     52 H13         12.8130     1.4020     1.0390 h1         1 9ES       0.049700
     53 H14         14.7460     6.2220    -6.3370 h1         1 9ES       0.044533
     54 H15         14.4150     7.7610    -5.5300 h1         1 9ES       0.044533
     55 H16         15.8840     6.8560    -5.1400 h1         1 9ES       0.044533
     56 H17          7.1790    -0.6970     6.3250 hc         1 9ES       0.059200
     57 H18          6.3160     0.8210     6.6090 hc         1 9ES       0.059200
     58 H19          5.1660    -1.9440     7.1270 hc         1 9ES       0.045700
     59 H20          4.3920    -0.3980     7.5020 hc         1 9ES       0.045700
     60 H21          5.8520    -0.8900     8.3710 hc         1 9ES       0.045700
     61 H22          7.0700     0.5100     3.9700 hn         1 9ES       0.316500
     62 H23          3.5060     0.0420     3.5710 ha         1 9ES       0.179000
     63 H25         -2.2920    -1.1450    -0.3400 h1         1 9ES       0.032200
     64 H26         -2.3740    -0.4660     1.2920 h1         1 9ES       0.032200
     65 H27         -1.6690    -3.3670     0.9820 hc         1 9ES       0.039367
     66 H28         -3.3580    -2.8820     0.7760 hc         1 9ES       0.039367
     67 H29         -2.5220    -2.5540     2.3010 hc         1 9ES       0.039367
     68 H30          6.0850     0.2570    -0.6420 ha         1 9ES       0.175000
     69 H31          3.6260     0.1200    -0.7090 ha         1 9ES       0.140000
     70 H32          8.0850    -0.0630     2.3170 hn         1 9ES       0.445800
     71 H33         14.2030     1.5620    -1.1290 hn         1 9ES       0.331500
     72 H34         16.0930     4.8200    -5.5690 ha         1 9ES       0.151000
     73 H35         18.4590     2.6630    -6.6740 h1         1 9ES       0.044533
     74 H36         16.9190     3.4880    -6.9510 h1         1 9ES       0.044533
     75 H37         18.0550     4.1150    -5.7480 h1         1 9ES       0.044533
     76 N7           6.1240     0.1860     3.9200 ns         1 9ES      -0.475100
     77 O2          14.1340     6.0790    -4.3740 os         1 9ES      -0.306900
     78 C14         12.4890     0.7010     0.2800 c3         1 9ES       0.083300
     79 O3           4.4820    -0.9330     4.9060 o          1 9ES      -0.591100
@<TRIPOS>BOND
     1    20    21 1
     2    20    19 1
     3     1    19 1
     4     1     2 1
     5    19     4 1
     6     2    18 1
     7    79    13 2
     8     3     4 1
     9     3    18 1
    10    18     5 1
    11    13    14 1
    12    13    76 1
    13    17     5 ar
    14    17    16 ar
    15     5    23 ar
    16    14    15 1
    17    76    16 1
    18    16     6 ar
    19    23    22 ar
    20     6    22 ar
    21     6    24 1
    22    78    27 1
    23    24     7 1
    24     8     7 ar
    25     8     9 ar
    26     7    25 ar
    27    27     9 1
    28    27    28 1
    29     9    26 ar
    30    25    10 ar
    31    29    28 2
    32    28    30 1
    33    26    10 ar
    34    37    36 1
    35    30    31 1
    36    36    31 ar
    37    36    35 ar
    38    31    32 ar
    39    38    35 1
    40    38    39 1
    41    35    34 ar
    42    32    33 1
    43    32    11 ar
    44    34    11 ar
    45    11    77 1
    46    77    12 1
    47     1    40 1
    48     1    41 1
    49     2    42 1
    50     2    43 1
    51     3    44 1
    52     3    45 1
    53     4    46 1
    54     4    47 1
    55     8    48 1
    56    10    49 1
    57    78    50 1
    58    78    51 1
    59    78    52 1
    60    12    53 1
    61    12    54 1
    62    12    55 1
    63    14    56 1
    64    14    57 1
    65    15    58 1
    66    15    59 1
    67    15    60 1
    68    76    61 1
    69    17    62 1
    70    20    63 1
    71    20    64 1
    72    21    65 1
    73    21    66 1
    74    21    67 1
    75    22    68 1
    76    23    69 1
    77    24    70 1
    78    30    71 1
    79    34    72 1
    80    39    73 1
    81    39    74 1
    82    39    75 1
@<TRIPOS>SUBSTRUCTURE
     1 9ES         1 TEMP              0 ****  ****    0 ROOT
