@<TRIPOS>MOLECULE
molecule
   44    47     1     0     0
SMALL
bcc


@<TRIPOS>ATOM
      1 C10          0.0000     0.0000     0.0000 ca         1 9ET      -0.175800
      2 C13         -2.0560     0.2820     1.2330 ca         1 9ET      -0.133300
      3 C15         -2.7800    -0.0200     0.0990 ca         1 9ET      -0.038000
      4 C17         -2.6010    -0.6510    -2.4530 cp         1 9ET      -0.089000
      5 C20         -2.8580    -1.3190    -5.1290 ca         1 9ET       0.134100
      6 C22         -1.5960    -1.1600    -4.5860 ca         1 9ET      -0.186000
      7 C01         -0.7450    -2.8730     5.8730 c3         1 9ET      -0.138100
      8 C02          0.0390    -2.7500     4.5930 c          1 9ET       0.629100
      9 C05          1.0890    -1.4950     2.8600 c3         1 9ET       0.125400
     10 C06          1.3210    -0.0380     2.4540 c3         1 9ET       0.203000
     11 C07          2.1140     0.6720     3.5530 c3         1 9ET      -0.077100
     12 C08          2.1080     0.0000     1.1710 c2         1 9ET      -0.222200
     13 C09          1.4760     0.0000     0.0000 ce         1 9ET      -0.069200
     14 C11         -0.6700     0.2970     1.1910 ca         1 9ET       0.184100
     15 C14         -2.7720     0.5970     2.5210 c3         1 9ET      -0.032800
     16 C16         -2.1270    -0.3050    -1.0990 cp         1 9ET      -0.115000
     17 C18         -3.8670    -0.8150    -3.0110 ca         1 9ET      -0.063000
     18 C19         -3.9920    -1.1490    -4.3410 ca         1 9ET      -0.180000
     19 C23         -1.4550    -0.8240    -3.2430 ca         1 9ET       0.012800
     20 C25         -0.7260    -0.2960    -1.1600 ca         1 9ET       0.046800
     21 N24         -0.3430    -0.6060    -2.4500 na         1 9ET      -0.186300
     22 O03          0.4080    -3.7440     4.0120 o          1 9ET      -0.553000
     23 O04          0.3300    -1.5370     4.0970 os         1 9ET      -0.420900
     24 O12          0.0600     0.6120     2.2920 os         1 9ET      -0.305900
     25 O21         -2.9910    -1.6470    -6.4410 oh         1 9ET      -0.521100
     26 H1          -3.8630    -0.0350     0.1390 ha         1 9ET       0.139000
     27 H2          -0.7180    -1.2940    -5.2060 ha         1 9ET       0.139000
     28 H3          -0.7640    -1.9150     6.3780 hc         1 9ET       0.069367
     29 H4          -1.7590    -3.1820     5.6470 hc         1 9ET       0.069367
     30 H5          -0.2770    -3.6100     6.5140 hc         1 9ET       0.069367
     31 H6           0.5360    -2.0040     2.0800 h1         1 9ET       0.062200
     32 H7           2.0440    -1.9850     3.0060 h1         1 9ET       0.062200
     33 H8           2.4120     1.6540     3.2060 hc         1 9ET       0.053033
     34 H9           1.4970     0.7720     4.4370 hc         1 9ET       0.053033
     35 H10          2.9970     0.0910     3.7930 hc         1 9ET       0.053033
     36 H11          3.1910     0.0240     1.2010 ha         1 9ET       0.141000
     37 H13          2.0310     0.0270    -0.9300 ha         1 9ET       0.131000
     38 H15         -3.7870     0.9050     2.3030 hc         1 9ET       0.044700
     39 H16         -2.7890    -0.2850     3.1490 hc         1 9ET       0.044700
     40 H17         -2.2540     1.3970     3.0360 hc         1 9ET       0.044700
     41 H18         -4.7510    -0.6830    -2.3990 ha         1 9ET       0.136000
     42 H19         -4.9760    -1.2760    -4.7760 ha         1 9ET       0.143000
     43 H20          0.6050    -0.6650    -2.7660 hn         1 9ET       0.299700
     44 H21         -2.9430    -2.5840    -6.5380 ho         1 9ET       0.420000
@<TRIPOS>BOND
     1    15     2 1
     2    17    18 ar
     3    17     4 ar
     4     3     2 ar
     5     3    16 ar
     6    18     5 ar
     7     2    14 ar
     8     4    16 1
     9     4    19 ar
    10    16    20 ar
    11     5    25 1
    12     5     6 ar
    13    14    24 1
    14    14     1 ar
    15    11    10 1
    16    19     6 ar
    17    19    21 1
    18    20     1 ar
    19    20    21 1
    20    24    10 1
    21     1    13 1
    22    10    12 1
    23    10     9 1
    24    12    13 2
    25     9    23 1
    26    23     8 1
    27     8     7 1
    28     8    22 2
    29     3    26 1
    30     6    27 1
    31     7    28 1
    32     7    29 1
    33     7    30 1
    34     9    31 1
    35     9    32 1
    36    11    33 1
    37    11    34 1
    38    11    35 1
    39    12    36 1
    40    13    37 1
    41    15    38 1
    42    15    39 1
    43    15    40 1
    44    17    41 1
    45    18    42 1
    46    21    43 1
    47    25    44 1
@<TRIPOS>SUBSTRUCTURE
     1 9ET         1 TEMP              0 ****  ****    0 ROOT
