@<TRIPOS>MOLECULE
9EU
   58    62     1     0     0
SMALL
bcc


@<TRIPOS>ATOM
      1 CAB          0.0000     0.0000     0.0000 c3         1 9EU      -0.015400
      2 CAX          1.5080     0.0000     0.0000 cc         1 9EU       0.212800
      3 NAU          2.2530     0.0000     1.0660 nd         1 9EU      -0.503100
      4 CBD          3.5610    -0.0010     0.7070 ca         1 9EU      -0.051900
      5 CAP          4.7670    -0.0010     1.4060 ca         1 9EU       0.458200
      6 NAT          5.9120    -0.0040     0.7560 nb         1 9EU      -0.606000
      7 CAJ          5.9760    -0.0040    -0.5650 ca         1 9EU       0.396200
      8 CAO          4.8330    -0.0030    -1.3360 ca         1 9EU      -0.192300
      9 CBE          3.5970    -0.0020    -0.7020 ca         1 9EU      -0.253200
     10 NBJ          2.2860    -0.0060    -1.1170 na         1 9EU       0.324700
     11 CAS          1.8150    -0.0140    -2.5040 c3         1 9EU       0.007600
     12 CBB          1.6570    -1.4380    -2.9730 ca         1 9EU      -0.137300
     13 CAY          2.7680    -2.1600    -3.3750 ca         1 9EU       0.085900
     14 FAG          3.9900    -1.5850    -3.3530 f          1 9EU      -0.122900
     15 CAQ          2.6290    -3.4670    -3.8000 ca         1 9EU      -0.060000
     16 CAM          0.4020    -2.0210    -2.9930 ca         1 9EU      -0.045000
     17 CAL          0.2480    -3.3230    -3.4200 ca         1 9EU      -0.084000
     18 CAZ          1.3650    -4.0580    -3.8230 ca         1 9EU      -0.154600
     19 CAV          1.2080    -5.4570    -4.2760 c          1 9EU       0.673900
     20 OAE          2.1630    -6.0620    -4.7260 o          1 9EU      -0.528100
     21 CBC         -0.1020    -6.1170    -4.1840 cc         1 9EU      -0.219400
     22 CAR         -0.9650    -6.3640    -5.2120 cd         1 9EU      -0.177400
     23 CBG         -0.7380    -6.6450    -2.9640 ca         1 9EU      -0.062800
     24 CBA         -0.3590    -6.6990    -1.6130 ca         1 9EU       0.079000
     25 CAH          0.8980    -6.1560    -1.1940 cg         1 9EU      -0.148000
     26 CAA          1.9250    -5.7190    -0.8320 c1         1 9EU      -0.088500
     27 CAK         -1.2170    -7.2850    -0.6860 ca         1 9EU      -0.094000
     28 CAI         -2.4300    -7.8080    -1.0960 ca         1 9EU      -0.076000
     29 CAN         -2.8080    -7.7590    -2.4220 ca         1 9EU      -0.099000
     30 CBF         -1.9690    -7.1780    -3.3680 ca         1 9EU      -0.135400
     31 NBI         -2.0750    -6.9910    -4.7370 n          1 9EU       0.248800
     32 CAW         -3.1240    -7.3770    -5.4900 c          1 9EU       0.570100
     33 OAF         -3.5040    -8.5310    -5.4550 o          1 9EU      -0.622100
     34 NBH         -3.7510    -6.4850    -6.2810 n          1 9EU      -0.157800
     35 CAC         -4.8180    -6.9260    -7.1810 c3         1 9EU       0.055300
     36 CAD         -3.3630    -5.0720    -6.2410 c3         1 9EU       0.055300
     37 H1          -0.1680     0.5080     0.9420 hc         1 9EU       0.030367
     38 H2          -0.3300    -1.0150     0.1880 hc         1 9EU       0.030367
     39 H3          -0.3550     0.6790    -0.7660 hc         1 9EU       0.030367
     40 H4           4.7750    -0.5150     2.3600 h4         1 9EU      -0.014900
     41 H5           6.9230     0.4140    -0.8830 h4         1 9EU      -0.015900
     42 H6           4.8780     0.0130    -2.4180 ha         1 9EU       0.125000
     43 H7           1.0350     0.7380    -2.4990 h1         1 9EU       0.041200
     44 H8           2.3720     0.5030    -3.2760 h1         1 9EU       0.041200
     45 H9           3.6330    -3.7940    -4.0400 ha         1 9EU       0.138000
     46 H10         -0.3110    -1.2730    -2.6640 ha         1 9EU       0.115000
     47 H11         -0.4740    -4.0680    -3.7290 ha         1 9EU       0.149000
     48 H12         -0.9680    -5.8350    -6.1570 h4         1 9EU       0.148000
     49 H13          2.8530    -5.5380    -0.3030 ha         1 9EU       0.143500
     50 H14         -0.5690    -7.3880     0.1760 ha         1 9EU       0.126000
     51 H15         -3.2780    -8.1520    -0.5160 ha         1 9EU       0.110000
     52 H16         -3.8150    -8.1520    -2.4950 ha         1 9EU       0.122000
     53 H17         -5.6750    -6.6520    -6.5770 h1         1 9EU       0.024533
     54 H18         -4.6900    -6.4800    -8.1590 h1         1 9EU       0.024533
     55 H19         -4.5300    -7.9700    -7.1660 h1         1 9EU       0.024533
     56 H20         -2.8750    -4.5430    -7.0510 h1         1 9EU       0.024533
     57 H21         -2.6590    -4.8160    -5.4590 h1         1 9EU       0.024533
     58 H22         -4.2950    -4.5210    -6.2920 h1         1 9EU       0.024533
@<TRIPOS>BOND
     1     1     2 1   
     2     1    37 1   
     3     1    38 1   
     4     1    39 1   
     5     2     3 2   
     6     2    10 1   
     7     3     4 1   
     8     4     5 ar  
     9     4     9 ar  
    10     5     6 ar  
    11     5    40 1   
    12     6     7 ar  
    13     7     8 ar  
    14     7    41 1   
    15     8     9 ar  
    16     8    42 1   
    17     9    10 1   
    18    10    11 1   
    19    11    12 1   
    20    11    43 1   
    21    11    44 1   
    22    12    13 ar  
    23    12    16 ar  
    24    13    14 1   
    25    13    15 ar  
    26    15    18 ar  
    27    15    45 1   
    28    16    17 ar  
    29    16    46 1   
    30    17    18 ar  
    31    17    47 1   
    32    18    19 1   
    33    19    20 2   
    34    19    21 1   
    35    21    22 2   
    36    21    23 1   
    37    22    31 1   
    38    22    48 1   
    39    23    24 ar  
    40    23    30 ar  
    41    24    25 1   
    42    24    27 ar  
    43    25    26 3   
    44    26    49 1   
    45    27    28 ar  
    46    27    50 1   
    47    28    29 ar  
    48    28    51 1   
    49    29    30 ar  
    50    29    52 1   
    51    30    31 1   
    52    31    32 1   
    53    32    33 2   
    54    32    34 1   
    55    34    35 1   
    56    34    36 1   
    57    35    53 1   
    58    35    54 1   
    59    35    55 1   
    60    36    56 1   
    61    36    57 1   
    62    36    58 1   
@<TRIPOS>SUBSTRUCTURE
     1 9EU         1 TEMP              0 ****  ****    0 ROOT
