@<TRIPOS>MOLECULE
molecule
   58    62     1     0     0
SMALL
bcc


@<TRIPOS>ATOM
      1 CAB          0.0000     0.0000     0.0000 c3         1 9EU      -0.115400
      2 CAX          1.5080     0.0000     0.0000 cc         1 9EU       0.422800
      3 NAU          2.2530     0.0000     1.0660 nd         1 9EU      -0.594100
      4 CBD          3.5610    -0.0010     0.7070 ca         1 9EU      -0.024900
      5 CAP          4.7670    -0.0010     1.4060 ca         1 9EU       0.465200
      6 NAT          5.9120    -0.0040     0.7560 nb         1 9EU      -0.704000
      7 CAJ          5.9760    -0.0040    -0.5650 ca         1 9EU       0.406200
      8 CAO          4.8330    -0.0030    -1.3360 ca         1 9EU      -0.228300
      9 CBE          3.5970    -0.0020    -0.7020 ca         1 9EU      -0.082200
     10 NBJ          2.2860    -0.0060    -1.1170 na         1 9EU      -0.144300
     11 CAS          1.8150    -0.0140    -2.5040 c3         1 9EU       0.076600
     12 CBB          1.6570    -1.4380    -2.9730 ca         1 9EU      -0.129300
     13 CAY          2.7680    -2.1600    -3.3750 ca         1 9EU       0.117900
     14 FAG          3.9900    -1.5850    -3.3530 f          1 9EU      -0.134900
     15 CAQ          2.6290    -3.4670    -3.8000 ca         1 9EU      -0.103000
     16 CAM          0.4020    -2.0210    -2.9930 ca         1 9EU      -0.078000
     17 CAL          0.2480    -3.3230    -3.4200 ca         1 9EU      -0.103000
     18 CAZ          1.3650    -4.0580    -3.8230 ca         1 9EU      -0.142600
     19 CAV          1.2080    -5.4570    -4.2760 c          1 9EU       0.613900
     20 OAE          2.1630    -6.0620    -4.7260 o          1 9EU      -0.491100
     21 CBC         -0.1020    -6.1170    -4.1840 cd         1 9EU      -0.225400
     22 CAR         -0.9650    -6.3640    -5.2120 cc         1 9EU      -0.018400
     23 CBG         -0.7380    -6.6450    -2.9640 ca         1 9EU      -0.062800
     24 CBA         -0.3590    -6.6990    -1.6130 ca         1 9EU       0.050000
     25 CAH          0.8980    -6.1560    -1.1940 cg         1 9EU      -0.142000
     26 CAA          1.9250    -5.7190    -0.8320 c1         1 9EU      -0.111500
     27 CAK         -1.2170    -7.2850    -0.6860 ca         1 9EU      -0.115000
     28 CAI         -2.4300    -7.8080    -1.0960 ca         1 9EU      -0.104000
     29 CAN         -2.8080    -7.7590    -2.4220 ca         1 9EU      -0.130000
     30 CBF         -1.9690    -7.1780    -3.3680 ca         1 9EU       0.032600
     31 NBI         -2.0750    -6.9910    -4.7370 n          1 9EU      -0.233200
     32 CAW         -3.1240    -7.3770    -5.4900 c          1 9EU       0.786100
     33 OAF         -3.5040    -8.5310    -5.4550 o          1 9EU      -0.582100
     34 NBH         -3.7510    -6.4850    -6.2810 n          1 9EU      -0.494800
     35 CAC         -4.8180    -6.9260    -7.1810 c3         1 9EU       0.078800
     36 CAD         -3.3630    -5.0720    -6.2410 c3         1 9EU       0.078800
     37 H1          -0.1680     0.5080     0.9420 hc         1 9EU       0.071033
     38 H2          -0.3300    -1.0150     0.1880 hc         1 9EU       0.071033
     39 H3          -0.3550     0.6790    -0.7660 hc         1 9EU       0.071033
     40 H4           4.7750    -0.5150     2.3600 h4         1 9EU       0.033100
     41 H5           6.9230     0.4140    -0.8830 h4         1 9EU       0.029100
     42 H6           4.8780     0.0130    -2.4180 ha         1 9EU       0.146000
     43 H7           1.0350     0.7380    -2.4990 h1         1 9EU       0.070700
     44 H8           2.3720     0.5030    -3.2760 h1         1 9EU       0.070700
     45 H9           3.6330    -3.7940    -4.0400 ha         1 9EU       0.167000
     46 H10         -0.3110    -1.2730    -2.6640 ha         1 9EU       0.142000
     47 H11         -0.4740    -4.0680    -3.7290 ha         1 9EU       0.171000
     48 H12         -0.9680    -5.8350    -6.1570 h4         1 9EU       0.177000
     49 H13          2.8530    -5.5380    -0.3030 ha         1 9EU       0.173500
     50 H14         -0.5690    -7.3880     0.1760 ha         1 9EU       0.155000
     51 H15         -3.2780    -8.1520    -0.5160 ha         1 9EU       0.142000
     52 H16         -3.8150    -8.1520    -2.4950 ha         1 9EU       0.150000
     53 H17         -5.6750    -6.6520    -6.5770 h1         1 9EU       0.053867
     54 H18         -4.6900    -6.4800    -8.1590 h1         1 9EU       0.053867
     55 H19         -4.5300    -7.9700    -7.1660 h1         1 9EU       0.053867
     56 H20         -2.8750    -4.5430    -7.0510 h1         1 9EU       0.053867
     57 H21         -2.6590    -4.8160    -5.4590 h1         1 9EU       0.053867
     58 H22         -4.2950    -4.5210    -6.2920 h1         1 9EU       0.053867
@<TRIPOS>BOND
     1    28    29 ar
     2    28    27 ar
     3    29    30 ar
     4    33    32 2
     5    36    34 1
     6    27    24 ar
     7    32    34 1
     8    32    31 1
     9    34    35 1
    10    30    31 1
    11    30    23 ar
    12    31    22 1
    13    24    23 ar
    14    24    25 1
    15    23    21 1
    16    22    21 2
    17    25    26 3
    18    21    19 1
    19    19    20 2
    20    19    18 1
    21    15    18 ar
    22    15    13 ar
    23    18    17 ar
    24    14    13 1
    25    13    12 ar
    26    17    16 ar
    27    12    16 ar
    28    12    11 1
    29    11    10 1
    30    10     9 1
    31    10     2 1
    32     8     9 ar
    33     8     7 ar
    34     1     2 1
    35     9     4 ar
    36     2     3 2
    37     7     6 ar
    38     4     3 1
    39     4     5 ar
    40     6     5 ar
    41     1    37 1
    42     1    38 1
    43     1    39 1
    44     5    40 1
    45     7    41 1
    46     8    42 1
    47    11    43 1
    48    11    44 1
    49    15    45 1
    50    16    46 1
    51    17    47 1
    52    22    48 1
    53    26    49 1
    54    27    50 1
    55    28    51 1
    56    29    52 1
    57    35    53 1
    58    35    54 1
    59    35    55 1
    60    36    56 1
    61    36    57 1
    62    36    58 1
@<TRIPOS>SUBSTRUCTURE
     1 9EU         1 TEMP              0 ****  ****    0 ROOT
