@<TRIPOS>MOLECULE
molecule
   24    25     1     0     0
SMALL
bcc


@<TRIPOS>ATOM
      1 C4           0.0000     0.0000     0.0000 ca         1 9EZ      -0.107000
      2 C5           1.3930     0.0000     0.0000 ca         1 9EZ      -0.110500
      3 C6           2.0860     0.0000     1.2090 ca         1 9EZ      -0.107000
      4 C7           2.1370    -0.0010    -1.2840 cc         1 9EZ       0.394800
      5 C8           3.5370    -0.0010    -1.4280 cc         1 9EZ      -0.344300
      6 C9           3.8190    -0.0030    -2.7580 cd         1 9EZ       0.164300
      7 N1           2.6380    -0.0030    -3.4300 na         1 9EZ       0.051400
      8 N2           1.6020    -0.0080    -2.4870 nd         1 9EZ      -0.507800
      9 C3          -0.6870     0.0050     1.1980 ca         1 9EZ      -0.133500
     10 N3           5.0890    -0.0030    -3.3290 nv         1 9EZ      -0.959200
     11 C1           1.3880     0.0010     2.4000 ca         1 9EZ      -0.133500
     12 C2           0.0060     0.0110     2.3950 ca         1 9EZ      -0.125000
     13 H1          -0.5430    -0.0020    -0.9370 ha         1 9EZ       0.140500
     14 H2           3.1700    -0.0040     1.2140 ha         1 9EZ       0.140500
     15 H3           4.2610    -0.0010    -0.6220 ha         1 9EZ       0.158000
     16 H4           1.4210    -0.0040    -5.1320 h1         1 9EZ       0.052033
     17 H5           2.9440     0.8790    -5.3020 h1         1 9EZ       0.052033
     18 H6           2.9430    -0.8900    -5.3000 h1         1 9EZ       0.052033
     19 H7          -1.7700     0.0090     1.2010 ha         1 9EZ       0.129500
     20 H8           5.5530    -0.8690    -3.5160 hn         1 9EZ       0.435800
     21 H9           5.5520     0.8640    -3.5170 hn         1 9EZ       0.435800
     22 H10          1.9260     0.0030     3.3410 ha         1 9EZ       0.129500
     23 H11         -0.5370     0.0130     3.3330 ha         1 9EZ       0.127000
     24 C10          2.4760    -0.0050    -4.8860 c3         1 9EZ       0.065600
@<TRIPOS>BOND
     1     9    12 ar
     2     9     1 ar
     3    12    11 ar
     4     1     2 ar
     5    11     3 ar
     6     2     3 ar
     7     2     4 1
     8     8     4 2
     9     8     7 1
    10     4     5 1
    11    24     7 1
    12     7     6 1
    13     5     6 2
    14     6    10 1
    15     1    13 1
    16     3    14 1
    17     5    15 1
    18    24    16 1
    19    24    17 1
    20    24    18 1
    21     9    19 1
    22    10    20 1
    23    10    21 1
    24    11    22 1
    25    12    23 1
@<TRIPOS>SUBSTRUCTURE
     1 9EZ         1 TEMP              0 ****  ****    0 ROOT
