@<TRIPOS>MOLECULE
9F2
   53    56     1     0     0
SMALL
bcc


@<TRIPOS>ATOM
      1 C1           0.0000     0.0000     0.0000 cy         1 9F2       0.069800
      2 S1           1.8240     0.0000     0.0000 ss         1 9F2      -0.435200
      3 C2           2.1620     0.0000     1.7880 c3         1 9F2       0.196900
      4 C3           1.2760     0.9470     2.5300 c2         1 9F2      -0.276400
      5 C4           1.7740     1.3950     3.8790 c3         1 9F2       0.160900
      6 S2           1.5170     0.0720     5.0870 ss         1 9F2      -0.298300
      7 C5           2.1510     0.8220     6.4900 cc         1 9F2       0.572100
      8 N1           2.6310     2.0530     6.3970 nd         1 9F2      -0.687100
      9 C6           3.1340     2.6780     7.4620 c          1 9F2       0.652500
     10 O1           3.5710     3.8080     7.3640 o          1 9F2      -0.524100
     11 C7           3.1510     1.9680     8.7810 c          1 9F2       0.507500
     12 O2           3.6020     2.5040     9.7730 o          1 9F2      -0.629500
     13 N2           2.6520     0.7120     8.8350 ns         1 9F2      -0.138300
     14 N3           2.1390     0.1370     7.6640 na         1 9F2      -0.277600
     15 C8           1.5900    -1.2190     7.7040 c3         1 9F2       0.195100
     16 C9           0.1070     1.4430     2.1480 ce         1 9F2      -0.015600
     17 N4          -0.4110     1.1220     0.8860 nj         1 9F2      -0.001000
     18 C10         -1.1920     1.6010    -0.0750 c          1 9F2       0.618500
     19 O3          -2.0460     2.4610    -0.0750 o          1 9F2      -0.577500
     20 C11         -0.6540     0.7110    -1.1710 cy         1 9F2      -0.063300
     21 N5           0.2860     1.3710    -2.0790 ns         1 9F2      -0.148900
     22 C12         -0.1100     1.7300    -3.3170 c          1 9F2       0.498800
     23 O4          -1.2480     1.5060    -3.6780 o          1 9F2      -0.610100
     24 C13          0.8420     2.3970    -4.2350 ce         1 9F2       0.300300
     25 N6           2.0620     2.6370    -3.8460 n2         1 9F2      -0.379200
     26 O5           3.0110     3.1470    -4.7670 os         1 9F2      -0.198300
     27 C14          4.3070     3.3630    -4.2060 c3         1 9F2       0.259700
     28 C15          0.4070     2.7920    -5.5920 cc         1 9F2       0.273000
     29 C16          1.1440     3.5970    -6.3820 cd         1 9F2      -0.075400
     30 S3           0.2830     3.8200    -7.9020 ss         1 9F2      -0.420300
     31 C17         -1.0190     2.7850    -7.3210 cd         1 9F2       0.549300
     32 N7          -2.1580     2.4570    -8.0360 nv         1 9F2      -0.554500
     33 N8          -0.7410     2.3710    -6.1250 nc         1 9F2      -0.487000
     34 C18         -0.6470     2.3310     3.0520 c          1 9F2       0.966800
     35 O6          -1.6590     1.9300     3.5910 o          1 9F2      -0.841800
     36 O7          -0.2150     3.5870     3.2790 o          1 9F2      -0.841800
     37 H1          -0.4600    -0.9450     0.2620 h2         1 9F2       0.071700
     38 H2           2.0050    -1.0000     2.1730 h1         1 9F2       0.045700
     39 H3           3.1940     0.2870     1.9490 h1         1 9F2       0.045700
     40 H5           1.2290     2.2780     4.1900 h1         1 9F2       0.096200
     41 H6           2.8300     1.6260     3.8160 h1         1 9F2       0.096200
     42 H7           2.6440     0.2040     9.6980 hn         1 9F2       0.197500
     43 H8           1.6570    -1.6060     8.7140 h1         1 9F2       0.025033
     44 H9           0.5520    -1.1980     7.3930 h1         1 9F2       0.025033
     45 H10          2.1540    -1.8580     7.0350 h1         1 9F2       0.025033
     46 H12         -1.4220     0.1180    -1.6540 h1         1 9F2       0.084700
     47 H13          1.2210     1.5640    -1.7770 hn         1 9F2       0.220500
     48 H14          4.6760     2.4360    -3.7830 h1         1 9F2      -0.001633
     49 H15          4.9840     3.7020    -4.9800 h1         1 9F2      -0.001633
     50 H16          4.2430     4.1140    -3.4280 h1         1 9F2      -0.001633
     51 H18          2.1020     4.0330    -6.1260 h4         1 9F2       0.185000
     52 H21         -2.1440     1.6870    -8.6740 hn         1 9F2       0.272300
     53 H22         -2.9960     2.9910    -7.9140 hn         1 9F2       0.272300
@<TRIPOS>BOND
     1     1     2 1   
     2     1    17 1   
     3     1    20 1   
     4     1    37 1   
     5     2     3 1   
     6     3     4 1   
     7     3    38 1   
     8     3    39 1   
     9     4     5 1   
    10     4    16 2   
    11     5     6 1   
    12     5    40 1   
    13     5    41 1   
    14     6     7 1   
    15     7     8 2   
    16     7    14 1   
    17     8     9 1   
    18     9    10 2   
    19     9    11 1   
    20    11    12 2   
    21    11    13 1   
    22    13    14 1   
    23    13    42 1   
    24    14    15 1   
    25    15    43 1   
    26    15    44 1   
    27    15    45 1   
    28    16    17 1   
    29    16    34 1   
    30    17    18 1   
    31    18    19 2   
    32    18    20 1   
    33    20    21 1   
    34    20    46 1   
    35    21    22 1   
    36    21    47 1   
    37    22    23 2   
    38    22    24 1   
    39    24    25 2   
    40    24    28 1   
    41    25    26 1   
    42    26    27 1   
    43    27    48 1   
    44    27    49 1   
    45    27    50 1   
    46    28    29 2   
    47    28    33 1   
    48    29    30 1   
    49    29    51 1   
    50    30    31 1   
    51    31    32 1   
    52    31    33 2   
    53    32    52 1   
    54    32    53 1   
    55    34    35 1   
    56    34    36 1   
@<TRIPOS>SUBSTRUCTURE
     1 9F2         1 TEMP              0 ****  ****    0 ROOT
