@<TRIPOS>MOLECULE
molecule
   53    56     1     0     0
SMALL
bcc


@<TRIPOS>ATOM
      1 C1           0.0000     0.0000     0.0000 cy         1 9F2       0.147800
      2 S1           1.8240     0.0000     0.0000 ss         1 9F2      -0.388200
      3 C2           2.1620     0.0000     1.7880 c3         1 9F2       0.106900
      4 C3           1.2760     0.9470     2.5300 c2         1 9F2      -0.274400
      5 C4           1.7740     1.3950     3.8790 c3         1 9F2       0.082900
      6 S2           1.5170     0.0720     5.0870 ss         1 9F2      -0.181300
      7 C5           2.1510     0.8220     6.4900 cc         1 9F2       0.714100
      8 N1           2.6310     2.0530     6.3970 nd         1 9F2      -0.760100
      9 C6           3.1340     2.6780     7.4620 c          1 9F2       0.657500
     10 O1           3.5710     3.8080     7.3640 o          1 9F2      -0.499100
     11 C7           3.1510     1.9680     8.7810 c          1 9F2       0.581500
     12 O2           3.6020     2.5040     9.7730 o          1 9F2      -0.603500
     13 N2           2.6520     0.7120     8.8350 ns         1 9F2      -0.407300
     14 N3           2.1390     0.1370     7.6640 na         1 9F2      -0.545600
     15 C8           1.5900    -1.2190     7.7040 c3         1 9F2       0.214100
     16 C9           0.1070     1.4430     2.1480 ce         1 9F2       0.119400
     17 N4          -0.4110     1.1220     0.8860 nj         1 9F2      -0.380000
     18 C10         -1.1920     1.6010    -0.0750 c          1 9F2       0.705500
     19 O3          -2.0460     2.4610    -0.0750 o          1 9F2      -0.541500
     20 C11         -0.6540     0.7110    -1.1710 cy         1 9F2       0.033700
     21 N5           0.2860     1.3710    -2.0790 ns         1 9F2      -0.543900
     22 C12         -0.1100     1.7300    -3.3170 c          1 9F2       0.597800
     23 O4          -1.2480     1.5060    -3.6780 o          1 9F2      -0.552100
     24 C13          0.8420     2.3970    -4.2350 cf         1 9F2       0.330300
     25 N6           2.0620     2.6370    -3.8460 n2         1 9F2      -0.416200
     26 O5           3.0110     3.1470    -4.7670 os         1 9F2      -0.209300
     27 C14          4.3070     3.3630    -4.2060 c3         1 9F2       0.132700
     28 C15          0.4070     2.7920    -5.5920 cd         1 9F2       0.309000
     29 C16          1.1440     3.5970    -6.3820 cc         1 9F2      -0.122400
     30 S3           0.2830     3.8200    -7.9020 ss         1 9F2      -0.335300
     31 C17         -1.0190     2.7850    -7.3210 cc         1 9F2       0.728300
     32 N7          -2.1580     2.4570    -8.0360 nv         1 9F2      -1.020500
     33 N8          -0.7410     2.3710    -6.1250 nd         1 9F2      -0.642000
     34 C18         -0.6470     2.3310     3.0520 c          1 9F2       0.875800
     35 O6          -1.6590     1.9300     3.5910 o          1 9F2      -0.789800
     36 O7          -0.2150     3.5870     3.2790 o          1 9F2      -0.789800
     37 H1          -0.4600    -0.9450     0.2620 h2         1 9F2       0.095700
     38 H2           2.0050    -1.0000     2.1730 h1         1 9F2       0.067200
     39 H3           3.1940     0.2870     1.9490 h1         1 9F2       0.067200
     40 H5           2.8300     1.6260     3.8160 h1         1 9F2       0.118700
     41 H6           1.2290     2.2780     4.1900 h1         1 9F2       0.118700
     42 H7           2.6440     0.2040     9.6980 hn         1 9F2       0.336500
     43 H8           2.1610    -1.8600     7.0430 h1         1 9F2       0.055700
     44 H9           1.6470    -1.6020     8.7160 h1         1 9F2       0.055700
     45 H10          0.5560    -1.2000     7.3830 h1         1 9F2       0.055700
     46 H12         -1.4220     0.1180    -1.6540 h1         1 9F2       0.114700
     47 H13          1.2320     1.5280    -1.7910 hn         1 9F2       0.357500
     48 H14          4.2600     4.1740    -3.4890 h1         1 9F2       0.042700
     49 H15          4.6400     2.4600    -3.7080 h1         1 9F2       0.042700
     50 H16          5.0040     3.6190    -4.9950 h1         1 9F2       0.042700
     51 H18          2.1020     4.0330    -6.1260 h4         1 9F2       0.208000
     52 H21         -2.8590     3.1510    -8.2060 hn         1 9F2       0.442300
     53 H22         -2.2750     1.5300    -8.3930 hn         1 9F2       0.442300
@<TRIPOS>BOND
     1    32    31 1
     2    31    33 2
     3    31    30 1
     4    33    28 1
     5    30    29 1
     6    28    29 2
     7    28    24 1
     8    21    20 1
     9    21    22 1
    10    19    18 2
    11    27    26 1
    12    24    25 2
    13    24    22 1
    14    20    18 1
    15    20     1 1
    16    25    26 1
    17    22    23 2
    18    18    17 1
    19    35    34 1
    20     1    17 1
    21     1     2 1
    22    17    16 1
    23    34    16 1
    24    34    36 1
    25    16     4 2
    26     2     3 1
    27     4     3 1
    28     4     5 1
    29     5     6 1
    30     6     7 1
    31     7     8 2
    32     7    14 1
    33     8     9 1
    34    15    14 1
    35    14    13 1
    36     9    10 2
    37     9    11 1
    38    13    11 1
    39    11    12 2
    40     1    37 1
    41     3    38 1
    42     3    39 1
    43     5    40 1
    44     5    41 1
    45    13    42 1
    46    15    43 1
    47    15    44 1
    48    15    45 1
    49    20    46 1
    50    21    47 1
    51    27    48 1
    52    27    49 1
    53    27    50 1
    54    29    51 1
    55    32    52 1
    56    32    53 1
@<TRIPOS>SUBSTRUCTURE
     1 9F2         1 TEMP              0 ****  ****    0 ROOT
