@<TRIPOS>MOLECULE
molecule
   42    44     1     0     0
SMALL
bcc


@<TRIPOS>ATOM
      1 C1           0.0000     0.0000     0.0000 c3         1 9F3       0.087100
      2 C2           1.5420     0.0000     0.0000 c3         1 9F3       0.312600
      3 C3          -0.3260     0.5300    -1.4240 c3         1 9F3       0.113100
      4 C4          -0.3400    -0.4540     2.8690 c3         1 9F3       0.075100
      5 C5           1.5590     1.0050     2.1840 c3         1 9F3       0.131400
      6 C6           0.9520     1.2790    -1.8470 c3         1 9F3       0.132100
      7 O1           2.0780     0.0000     1.3080 os         1 9F3      -0.365600
      8 C9           2.0530    -1.2240    -0.7640 c3         1 9F3       0.141400
      9 O7           3.4810    -1.1870    -0.8200 oh         1 9F3      -0.580800
     10 O2           1.8960     1.1850    -0.7290 os         1 9F3      -0.383600
     11 C10          0.6360     2.7470    -2.1400 c3         1 9F3       0.143400
     12 O8           1.8110     3.4000    -2.6250 oh         1 9F3      -0.593800
     13 O4          -0.5890    -0.5560    -2.3140 oh         1 9F3      -0.598800
     14 O           -0.4930     0.9690     0.9300 os         1 9F3      -0.421600
     15 C            0.0640     0.8900     2.2350 c3         1 9F3       0.319600
     16 O3          -0.4830     1.9020     3.0960 os         1 9F3      -0.350600
     17 C8          -1.7860     1.4090     3.4850 c3         1 9F3       0.132100
     18 C11         -2.2500     2.0890     4.7740 c3         1 9F3       0.147400
     19 O9          -2.4740     3.4790     4.5250 oh         1 9F3      -0.595800
     20 C7          -1.5840    -0.1050     3.7180 c3         1 9F3       0.081100
     21 O6          -2.7220    -0.8380     3.2630 oh         1 9F3      -0.594800
     22 O5           0.7110    -0.9520     3.6990 oh         1 9F3      -0.583800
     23 H1          -0.4110    -0.9870     0.1730 h1         1 9F3       0.075700
     24 H2          -1.1680     1.2120    -1.3880 h1         1 9F3       0.070700
     25 H3          -0.5980    -1.1720     2.1000 h1         1 9F3       0.066700
     26 H4           1.9660     0.8620     3.1780 h1         1 9F3       0.088200
     27 H5           1.8340     1.9850     1.8120 h1         1 9F3       0.088200
     28 H6           1.3780     0.8070    -2.7250 h1         1 9F3       0.083700
     29 H7           1.7350    -2.1260    -0.2550 h1         1 9F3       0.040200
     30 H8           1.6520    -1.2150    -1.7700 h1         1 9F3       0.040200
     31 H9           3.8080    -2.0360    -1.0680 ho         1 9F3       0.398000
     32 H10          0.3020     3.2330    -1.2310 h1         1 9F3       0.032200
     33 H11         -0.1450     2.8060    -2.8880 h1         1 9F3       0.032200
     34 H12          1.6040     4.2910    -2.8540 ho         1 9F3       0.402000
     35 H13         -1.4680    -0.4840    -2.6470 ho         1 9F3       0.413000
     36 H14         -2.5010     1.5720     2.6870 h1         1 9F3       0.089700
     37 H15         -1.4890     1.9770     5.5360 h1         1 9F3       0.030700
     38 H16         -3.1710     1.6300     5.1130 h1         1 9F3       0.030700
     39 H17         -2.8280     3.8840     5.2990 ho         1 9F3       0.403000
     40 H18         -1.3920    -0.3020     4.7660 h1         1 9F3       0.056700
     41 H19         -2.9800    -1.4610     3.9230 ho         1 9F3       0.405000
     42 H20          0.5580    -1.8630     3.8870 ho         1 9F3       0.406000
@<TRIPOS>BOND
     1    12    11 1
     2    11     6 1
     3     6    10 1
     4     6     3 1
     5    10     2 1
     6     3    13 1
     7     3     1 1
     8     2     7 1
     9     2     8 1
    10     2     1 1
    11     7     5 1
    12    19    18 1
    13    18    17 1
    14     9     8 1
    15     1    14 1
    16    16    17 1
    17    16    15 1
    18    17    20 1
    19     5    15 1
    20    15    14 1
    21    15     4 1
    22    20     4 1
    23    20    21 1
    24     4    22 1
    25     1    23 1
    26     3    24 1
    27     4    25 1
    28     5    26 1
    29     5    27 1
    30     6    28 1
    31     8    29 1
    32     8    30 1
    33     9    31 1
    34    11    32 1
    35    11    33 1
    36    12    34 1
    37    13    35 1
    38    17    36 1
    39    18    37 1
    40    18    38 1
    41    19    39 1
    42    20    40 1
    43    21    41 1
    44    22    42 1
@<TRIPOS>SUBSTRUCTURE
     1 9F3         1 TEMP              0 ****  ****    0 ROOT
