@<TRIPOS>MOLECULE
molecule
   42    45     1     0     0
SMALL
bcc


@<TRIPOS>ATOM
      1 F26          0.0000     0.0000     0.0000 f          1 9F4      -0.126900
      2 C23          1.3500     0.0000     0.0000 ca         1 9F4      -0.128700
      3 C22          2.0610     0.0000     1.1930 ca         1 9F4       0.431700
      4 N21          3.3820     0.0000     1.1560 nb         1 9F4      -0.711000
      5 C24          2.0610    -0.0060    -1.1940 ca         1 9F4       0.431700
      6 N25          3.3820    -0.0060    -1.1580 nb         1 9F4      -0.711000
      7 C20          4.0290    -0.0010    -0.0000 cp         1 9F4       0.734500
      8 C12          5.5110    -0.0010    -0.0020 cp         1 9F4      -0.150500
      9 C11          6.2100    -0.0010    -1.2070 ca         1 9F4      -0.078000
     10 C10          7.5910    -0.0010    -1.2020 ca         1 9F4      -0.139000
     11 C13          6.2120     0.0060     1.2040 ca         1 9F4      -0.078000
     12 C14          7.5910     0.0060     1.1970 ca         1 9F4      -0.139000
     13 C9           8.2800    -0.0000    -0.0020 ca         1 9F4      -0.033300
     14 C8           9.7880     0.0000    -0.0020 cx         1 9F4      -0.048400
     15 C15         10.4940     0.2030     1.3390 cx         1 9F4      -0.216700
     16 C16         11.7870     0.9780     1.3340 c          1 9F4       0.707100
     17 N18         12.3590     1.3420     2.4990 ns         1 9F4      -0.469400
     18 O19         13.5730     2.0700     2.4940 oh         1 9F4      -0.360100
     19 O17         12.3120     1.2740     0.2820 o          1 9F4      -0.566100
     20 C7          10.4940    -1.1750     0.6760 cx         1 9F4      -0.042400
     21 C6          11.7860    -1.6550     0.0680 ca         1 9F4      -0.060300
     22 C1          12.8140    -2.0900     0.8840 ca         1 9F4      -0.107500
     23 C5          11.9420    -1.6650    -1.3050 ca         1 9F4      -0.107500
     24 C4          13.1280    -2.1050    -1.8630 ca         1 9F4      -0.123500
     25 C3          14.1580    -2.5350    -1.0480 ca         1 9F4      -0.121000
     26 C2          14.0000    -2.5300     0.3250 ca         1 9F4      -0.123500
     27 H22          1.5390     0.0010     2.1430 h4         1 9F4       0.044100
     28 H24          1.5380    -0.0100    -2.1430 h4         1 9F4       0.044100
     29 H11          5.6720    -0.0020    -2.1470 ha         1 9F4       0.155000
     30 H13          5.6740     0.0110     2.1440 ha         1 9F4       0.155000
     31 H10          8.1360    -0.0030    -2.1380 ha         1 9F4       0.135500
     32 H14          8.1360     0.0090     2.1340 ha         1 9F4       0.135500
     33 H8          10.3110     0.4120    -0.8570 hc         1 9F4       0.122700
     34 H15          9.8310     0.2970     2.1910 hc         1 9F4       0.088700
     35 H7           9.8310    -1.8980     1.1350 hc         1 9F4       0.096700
     36 H18         11.9110     1.1220     3.3660 hn         1 9F4       0.318500
     37 H1          12.6900    -2.0860     1.9600 ha         1 9F4       0.128000
     38 H5          11.1350    -1.3290    -1.9450 ha         1 9F4       0.128000
     39 H2          14.8060    -2.8690     0.9640 ha         1 9F4       0.129500
     40 H4          13.2510    -2.1110    -2.9390 ha         1 9F4       0.129500
     41 H3          15.0870    -2.8800    -1.4850 ha         1 9F4       0.129000
     42 H19         13.7210     2.4400     3.3490 ho         1 9F4       0.396000
@<TRIPOS>BOND
     1     1     2 1
     2     2     3 ar
     3     2     5 ar
     4     3     4 ar
     5     4     7 ar
     6     5     6 ar
     7     6     7 ar
     8     7     8 1
     9     8     9 ar
    10     8    11 ar
    11     9    10 ar
    12    10    13 ar
    13    11    12 ar
    14    12    13 ar
    15    13    14 1
    16    14    15 1
    17    14    20 1
    18    15    16 1
    19    15    20 1
    20    16    17 1
    21    16    19 2
    22    17    18 1
    23    20    21 1
    24    21    22 ar
    25    21    23 ar
    26    22    26 ar
    27    23    24 ar
    28    24    25 ar
    29    25    26 ar
    30    18    42 1
    31     3    27 1
    32     5    28 1
    33     9    29 1
    34    11    30 1
    35    10    31 1
    36    12    32 1
    37    14    33 1
    38    15    34 1
    39    20    35 1
    40    17    36 1
    41    22    37 1
    42    23    38 1
    43    26    39 1
    44    24    40 1
    45    25    41 1
@<TRIPOS>SUBSTRUCTURE
     1 9F4         1 TEMP              0 ****  ****    0 ROOT
