@<TRIPOS>MOLECULE
9F4
   42    45     1     0     0
SMALL
bcc


@<TRIPOS>ATOM
      1 F26          0.0000     0.0000     0.0000 f          1 9F4      -0.110900
      2 C23          1.3500     0.0000     0.0000 ca         1 9F4      -0.144700
      3 C22          2.0610     0.0000     1.1930 ca         1 9F4       0.418700
      4 N21          3.3820     0.0000     1.1560 nb         1 9F4      -0.595000
      5 C24          2.0610    -0.0060    -1.1940 ca         1 9F4       0.418700
      6 N25          3.3820    -0.0060    -1.1580 nb         1 9F4      -0.595000
      7 C20          4.0290    -0.0010    -0.0000 cp         1 9F4       0.658500
      8 C12          5.5110    -0.0010    -0.0020 cp         1 9F4      -0.174500
      9 C11          6.2100    -0.0010    -1.2070 ca         1 9F4      -0.052500
     10 C10          7.5910    -0.0010    -1.2020 ca         1 9F4      -0.117500
     11 C13          6.2120     0.0060     1.2040 ca         1 9F4      -0.052500
     12 C14          7.5910     0.0060     1.1970 ca         1 9F4      -0.117500
     13 C9           8.2800    -0.0000    -0.0020 ca         1 9F4      -0.033300
     14 C8           9.7880     0.0000    -0.0020 cx         1 9F4      -0.026400
     15 C15         10.4940     0.2030     1.3390 cx         1 9F4      -0.210700
     16 C16         11.7870     0.9780     1.3340 c          1 9F4       0.612100
     17 N18         12.3590     1.3420     2.4990 ns         1 9F4      -0.054400
     18 O19         13.5730     2.0700     2.4940 oh         1 9F4      -0.437100
     19 O17         12.3120     1.2740     0.2820 o          1 9F4      -0.612100
     20 C7          10.4940    -1.1750     0.6760 cx         1 9F4      -0.006400
     21 C6          11.7860    -1.6550     0.0680 ca         1 9F4      -0.058300
     22 C1          12.8140    -2.0900     0.8840 ca         1 9F4      -0.086500
     23 C5          11.9420    -1.6650    -1.3050 ca         1 9F4      -0.086500
     24 C4          13.1280    -2.1050    -1.8630 ca         1 9F4      -0.094500
     25 C3          14.1580    -2.5350    -1.0480 ca         1 9F4      -0.097000
     26 C2          14.0000    -2.5300     0.3250 ca         1 9F4      -0.094500
     27 H22          1.5390     0.0010     2.1430 h4         1 9F4      -0.001400
     28 H24          1.5380    -0.0100    -2.1430 h4         1 9F4      -0.001400
     29 H11          5.6720    -0.0020    -2.1470 ha         1 9F4       0.123000
     30 H13          5.6740     0.0110     2.1440 ha         1 9F4       0.123000
     31 H10          8.1360    -0.0030    -2.1380 ha         1 9F4       0.111500
     32 H14          8.1360     0.0090     2.1340 ha         1 9F4       0.111500
     33 H8          10.3110     0.4120    -0.8570 hc         1 9F4       0.097700
     34 H15          9.8310     0.2970     2.1910 hc         1 9F4       0.069700
     35 H7           9.8310    -1.8980     1.1350 hc         1 9F4       0.065700
     36 H18         11.9110     1.1220     3.3660 hn         1 9F4       0.153500
     37 H1          12.6900    -2.0860     1.9600 ha         1 9F4       0.102500
     38 H5          11.1350    -1.3290    -1.9450 ha         1 9F4       0.102500
     39 H2          14.8060    -2.8690     0.9640 ha         1 9F4       0.101000
     40 H4          13.2510    -2.1110    -2.9390 ha         1 9F4       0.101000
     41 H3          15.0870    -2.8800    -1.4850 ha         1 9F4       0.101000
     42 H19         13.7210     2.4400     3.3490 ho         1 9F4       0.390000
@<TRIPOS>BOND
     1     1     2 1   
     2     2     3 ar  
     3     2     5 ar  
     4     3     4 ar  
     5     3    27 1   
     6     4     7 ar  
     7     5     6 ar  
     8     5    28 1   
     9     6     7 ar  
    10     7     8 1   
    11     8     9 ar  
    12     8    11 ar  
    13     9    10 ar  
    14     9    29 1   
    15    10    13 ar  
    16    10    31 1   
    17    11    12 ar  
    18    11    30 1   
    19    12    13 ar  
    20    12    32 1   
    21    13    14 1   
    22    14    15 1   
    23    14    20 1   
    24    14    33 1   
    25    15    16 1   
    26    15    20 1   
    27    15    34 1   
    28    16    17 1   
    29    16    19 2   
    30    17    18 1   
    31    17    36 1   
    32    18    42 1   
    33    20    21 1   
    34    20    35 1   
    35    21    22 ar  
    36    21    23 ar  
    37    22    26 ar  
    38    22    37 1   
    39    23    24 ar  
    40    23    38 1   
    41    24    25 ar  
    42    24    40 1   
    43    25    26 ar  
    44    25    41 1   
    45    26    39 1   
@<TRIPOS>SUBSTRUCTURE
     1 9F4         1 TEMP              0 ****  ****    0 ROOT
