@<TRIPOS>MOLECULE
molecule
   29    30     1     0     0
SMALL
bcc


@<TRIPOS>ATOM
      1 C10          0.0000     0.0000     0.0000 ca         1 9F5       0.071100
      2 C13         -1.3230     2.2380    -0.7090 ca         1 9F5      -0.185500
      3 C15         -2.8710     3.3500    -2.1600 ca         1 9F5      -0.180000
      4 C17         -2.2110     1.0960    -2.6280 ca         1 9F5      -0.185500
      5 C02         -0.7820    -1.4020     4.2620 c          1 9F5       0.880600
      6 O03         -0.2160    -1.6540     5.3000 o          1 9F5      -0.824800
      7 C04         -0.7470    -0.0030     3.7040 c3         1 9F5       0.073400
      8 O05         -0.0890     0.8640     4.6320 oh         1 9F5      -0.599800
      9 C06          0.0040    -0.0010     2.3970 ca         1 9F5      -0.017300
     10 C07          1.3860    -0.0020     2.3940 ca         1 9F5      -0.096000
     11 C08          2.0770     0.0000     1.1970 ca         1 9F5      -0.138000
     12 C09          1.3870     0.0000     0.0000 ca         1 9F5      -0.154000
     13 O11         -0.6810    -0.0050    -1.1760 os         1 9F5      -0.244200
     14 C12         -1.4000     1.1010    -1.5010 ca         1 9F5       0.154100
     15 C14         -2.0590     3.3600    -1.0410 ca         1 9F5      -0.100000
     16 C16         -2.9480     2.2190    -2.9510 ca         1 9F5      -0.100000
     17 C18         -0.6920    -0.0010     1.2030 ca         1 9F5      -0.131000
     18 H1          -0.6890     2.2450     0.1690 ha         1 9F5       0.147500
     19 H2          -3.4490     4.2300    -2.4160 ha         1 9F5       0.118000
     20 H3          -2.2720     0.2100    -3.2480 ha         1 9F5       0.147500
     21 H5          -1.7590     0.3460     3.5400 h1         1 9F5       0.026700
     22 H6          -0.7180     1.4560     5.0090 ho         1 9F5       0.378000
     23 H7           1.9290    -0.0020     3.3320 ha         1 9F5       0.155000
     24 H8           3.1610    -0.0000     1.1980 ha         1 9F5       0.118000
     25 H9           1.9290     0.0010    -0.9380 ha         1 9F5       0.121000
     26 H10         -2.0000     4.2470    -0.4220 ha         1 9F5       0.122500
     27 H11         -3.5840     2.2140    -3.8280 ha         1 9F5       0.122500
     28 H12         -1.7750    -0.0010     1.2060 ha         1 9F5       0.146000
     29 O01         -1.3560    -2.3880     3.5540 o          1 9F5      -0.824800
@<TRIPOS>BOND
     1    15     2 ar
     2    15     3 ar
     3     2    14 ar
     4     3    16 ar
     5    14    13 1
     6    14     4 ar
     7    13     1 1
     8    16     4 ar
     9     1    12 ar
    10     1    17 ar
    11    12    11 ar
    12    17     9 ar
    13     6     5 1
    14    29     5 1
    15    11    10 ar
    16     5     7 1
    17     9    10 ar
    18     9     7 1
    19     7     8 1
    20     2    18 1
    21     3    19 1
    22     4    20 1
    23     7    21 1
    24     8    22 1
    25    10    23 1
    26    11    24 1
    27    12    25 1
    28    15    26 1
    29    16    27 1
    30    17    28 1
@<TRIPOS>SUBSTRUCTURE
     1 9F5         1 TEMP              0 ****  ****    0 ROOT
