@<TRIPOS>MOLECULE
molecule
   27    28     1     0     0
SMALL
bcc


@<TRIPOS>ATOM
      1 C10          0.0000     0.0000     0.0000 c3         1 9F8       0.049300
      2 C15          4.9820     0.0000     0.6640 c3         1 9F8      -0.004900
      3 C01          2.4370     0.0000     0.6170 cc         1 9F8      -0.080100
      4 C02          3.6290     0.0000     0.0000 cd         1 9F8      -0.195400
      5 C03          3.3650    -0.0000    -1.4410 ca         1 9F8      -0.105800
      6 C04          1.9660     0.0000    -1.5790 ca         1 9F8      -0.030200
      7 C05          1.4070    -0.0010    -2.8540 ca         1 9F8      -0.124000
      8 C06          2.2280    -0.0020    -3.9610 ca         1 9F8      -0.131000
      9 C07          3.6090    -0.0010    -3.8180 ca         1 9F8      -0.172000
     10 C08          4.1790    -0.0010    -2.5760 ca         1 9F8      -0.091000
     11 N09          1.4320     0.0000    -0.3100 na         1 9F8      -0.050400
     12 C11         -0.5250    -1.4370    -0.0140 c3         1 9F8      -0.206400
     13 C12         -1.9980    -1.4360     0.3050 c          1 9F8       0.892600
     14 O13         -2.6750    -2.5940     0.3500 o          1 9F8      -0.848800
     15 O14         -2.5690    -0.3950     0.5220 o          1 9F8      -0.848800
     16 H1          -0.1570     0.4320     0.9810 h1         1 9F8       0.067700
     17 H2          -0.5300     0.5860    -0.7410 h1         1 9F8       0.067700
     18 H3           5.5310    -0.8840     0.3650 hc         1 9F8       0.027367
     19 H4           4.8560     0.0010     1.7400 hc         1 9F8       0.027367
     20 H5           5.5310     0.8850     0.3650 hc         1 9F8       0.027367
     21 H6           2.2920     0.0000     1.6910 h4         1 9F8       0.162000
     22 H7           0.3310    -0.0020    -2.9760 ha         1 9F8       0.138000
     23 H8           1.7920    -0.0020    -4.9520 ha         1 9F8       0.118000
     24 H9           4.2400    -0.0020    -4.6980 ha         1 9F8       0.111000
     25 H10          5.2570    -0.0000    -2.4720 ha         1 9F8       0.114000
     26 H11         -0.3690    -1.8690    -0.9950 hc         1 9F8       0.043200
     27 H12          0.0040    -2.0230     0.7270 hc         1 9F8       0.043200
@<TRIPOS>BOND
     1     2     4 1
     2     3     4 2
     3     3    11 1
     4     4     5 1
     5    11     1 1
     6    11     6 1
     7     5     6 ar
     8     5    10 ar
     9     1    12 1
    10     6     7 ar
    11    15    13 1
    12    14    13 1
    13    13    12 1
    14    10     9 ar
    15     7     8 ar
    16     9     8 ar
    17     1    16 1
    18     1    17 1
    19     2    18 1
    20     2    19 1
    21     2    20 1
    22     3    21 1
    23     7    22 1
    24     8    23 1
    25     9    24 1
    26    10    25 1
    27    12    26 1
    28    12    27 1
@<TRIPOS>SUBSTRUCTURE
     1 9F8         1 TEMP              0 ****  ****    0 ROOT
