@<TRIPOS>MOLECULE
9F9
   55    58     1     0     0
SMALL
bcc


@<TRIPOS>ATOM
      1 C01          0.0000     0.0000     0.0000 c3         1 9F9       0.232700
      2 O05          1.4290     0.0000     0.0000 os         1 9F9      -0.258900
      3 C06          2.0450     0.0000     1.2080 ca         1 9F9       0.218100
      4 C07          1.2920     0.0010     2.3740 ca         1 9F9      -0.229000
      5 C09          1.9200     0.0010     3.6030 ca         1 9F9      -0.028000
      6 C11          3.3030     0.0010     3.6830 ca         1 9F9      -0.158000
      7 C13          4.0670     0.0010     2.5370 ca         1 9F9      -0.042000
      8 C15          3.4440    -0.0060     1.2860 ca         1 9F9      -0.207600
      9 C16          4.2550    -0.0130     0.0530 c          1 9F9       0.588700
     10 O17          3.7090    -0.0130    -1.0330 o          1 9F9      -0.631100
     11 N18          5.6000    -0.0190     0.1320 ns         1 9F9      -0.026100
     12 C20          6.3710    -0.1210    -1.0350 ca         1 9F9      -0.059400
     13 C21          5.9320     0.4730    -2.2080 ca         1 9F9      -0.085000
     14 C23          6.6950     0.3720    -3.3620 ca         1 9F9      -0.129400
     15 N24          6.5260     0.8480    -4.6620 n          1 9F9       0.050000
     16 C25          5.3930     1.6410    -5.1450 c3         1 9F9       0.084300
     17 C29          7.5830     0.4540    -5.3980 c          1 9F9       0.582500
     18 O30          7.7480     0.7040    -6.5770 o          1 9F9      -0.723500
     19 N31          8.4310    -0.2560    -4.6300 n          1 9F9       0.044000
     20 C32          9.6940    -0.8520    -5.0730 c3         1 9F9       0.086300
     21 C36          7.9020    -0.3270    -3.3420 ca         1 9F9      -0.156400
     22 C37          8.3410    -0.9220    -2.1670 ca         1 9F9      -0.104000
     23 C39          7.5810    -0.8140    -1.0140 ca         1 9F9      -0.021400
     24 N40          8.0250    -1.4100     0.1740 nh         1 9F9      -0.402000
     25 C41          9.3220    -0.8580     0.5860 c3         1 9F9       0.147800
     26 C44          9.7060    -1.4210     1.9560 c3         1 9F9      -0.024900
     27 C47          9.7840    -2.9470     1.8710 c3         1 9F9      -0.027400
     28 C50          8.4350    -3.4940     1.3950 c3         1 9F9      -0.024900
     29 C53          8.0880    -2.8700     0.0410 c3         1 9F9       0.147800
     30 H011        -0.3610    -0.8840     0.5120 h1         1 9F9      -0.001633
     31 H012        -0.3610     0.8850     0.5090 h1         1 9F9      -0.001633
     32 H013        -0.3610    -0.0020    -1.0210 h1         1 9F9      -0.001633
     33 H07          0.2100     0.0010     2.3200 ha         1 9F9       0.125000
     34 H09          1.3280     0.0010     4.5100 ha         1 9F9       0.100000
     35 H11          3.7870     0.0040     4.6530 ha         1 9F9       0.108000
     36 H13          5.1480    -0.0010     2.6040 ha         1 9F9       0.105000
     37 H18          6.0500     0.1020     1.0180 hn         1 9F9       0.183500
     38 H21          5.0310     1.0740    -2.2070 ha         1 9F9       0.150000
     39 H251         5.5680     1.9320    -6.1740 h1         1 9F9       0.021367
     40 H252         5.2850     2.5270    -4.5320 h1         1 9F9       0.021367
     41 H253         4.4870     1.0490    -5.0870 h1         1 9F9       0.021367
     42 H321         9.6500    -1.9270    -4.9470 h1         1 9F9       0.018367
     43 H322         9.8580    -0.6170    -6.1180 h1         1 9F9       0.018367
     44 H323        10.5090    -0.4530    -4.4810 h1         1 9F9       0.018367
     45 H37          9.2800    -1.4610    -2.1500 ha         1 9F9       0.115000
     46 H411         9.2510     0.2210     0.6480 h1         1 9F9       0.013700
     47 H412        10.0770    -1.1340    -0.1400 h1         1 9F9       0.013700
     48 H531         8.8510    -3.1330    -0.6820 h1         1 9F9       0.013700
     49 H532         7.1260    -3.2430    -0.2910 h1         1 9F9       0.013700
     50 H441         8.9570    -1.1380     2.6850 hc         1 9F9       0.018950
     51 H442        10.6720    -1.0270     2.2500 hc         1 9F9       0.018950
     52 H471        10.5570    -3.2310     1.1670 hc         1 9F9       0.014200
     53 H472        10.0110    -3.3520     2.8500 hc         1 9F9       0.014200
     54 H501         8.4980    -4.5700     1.2900 hc         1 9F9       0.018950
     55 H502         7.6680    -3.2390     2.1160 hc         1 9F9       0.018950
@<TRIPOS>BOND
     1     1     2 1   
     2     1    30 1   
     3     1    31 1   
     4     1    32 1   
     5     2     3 1   
     6     3     4 ar  
     7     3     8 ar  
     8     4     5 ar  
     9     4    33 1   
    10     5     6 ar  
    11     5    34 1   
    12     6     7 ar  
    13     6    35 1   
    14     7     8 ar  
    15     7    36 1   
    16     8     9 1   
    17     9    10 2   
    18     9    11 1   
    19    11    12 1   
    20    11    37 1   
    21    12    13 ar  
    22    12    23 ar  
    23    13    14 ar  
    24    13    38 1   
    25    14    15 1   
    26    14    21 ar  
    27    15    16 1   
    28    15    17 1   
    29    16    39 1   
    30    16    40 1   
    31    16    41 1   
    32    17    18 2   
    33    17    19 1   
    34    19    20 1   
    35    19    21 1   
    36    20    42 1   
    37    20    43 1   
    38    20    44 1   
    39    21    22 ar  
    40    22    23 ar  
    41    22    45 1   
    42    23    24 1   
    43    24    25 1   
    44    24    29 1   
    45    25    26 1   
    46    25    46 1   
    47    25    47 1   
    48    26    27 1   
    49    26    50 1   
    50    26    51 1   
    51    27    28 1   
    52    27    52 1   
    53    27    53 1   
    54    28    29 1   
    55    28    54 1   
    56    28    55 1   
    57    29    48 1   
    58    29    49 1   
@<TRIPOS>SUBSTRUCTURE
     1 9F9         1 TEMP              0 ****  ****    0 ROOT
