@<TRIPOS>MOLECULE
molecule
   17    18     1     0     0
SMALL
bcc


@<TRIPOS>ATOM
      1 C13          0.0000     0.0000     0.0000 ca         1 9FE      -0.035000
      2 O01          3.3560     0.0020    -1.2800 o          1 9FE      -0.836300
      3 C02          2.1410     0.0020    -1.2790 c          1 9FE       0.886200
      4 O03          1.4650     0.0030    -2.4440 o          1 9FE      -0.836300
      5 C04          1.4040     0.0000     0.0000 ca         1 9FE      -0.138600
      6 C05          2.1030     0.0000     1.2020 ca         1 9FE      -0.041000
      7 C06          1.3950    -0.0020     2.4060 ca         1 9FE      -0.245900
      8 C07          1.7900    -0.0030     3.8130 cc         1 9FE       0.346900
      9 Br           3.5620    -0.0030     4.4740 br         1 9FE      -0.034300
     10 N09          0.7030    -0.0040     4.5290 nd         1 9FE      -0.543100
     11 N10         -0.4220    -0.0030     3.6970 na         1 9FE      -0.065100
     12 C11         -0.0140    -0.0020     2.3910 ca         1 9FE      -0.005200
     13 C12         -0.6940     0.0050     1.1720 ca         1 9FE      -0.205000
     14 H1          -0.5360    -0.0100    -0.9410 ha         1 9FE       0.161000
     15 H3           3.1860    -0.0000     1.2040 ha         1 9FE       0.159000
     16 H5          -1.7770     0.0050     1.1580 ha         1 9FE       0.111000
     17 H4          -1.2820    -0.0030     4.2070 hn         1 9FE       0.321700
@<TRIPOS>BOND
     1     9     8 1
     2     8    10 2
     3     8     7 1
     4    10    11 1
     5     7     6 ar
     6     7    12 ar
     7     6     5 ar
     8     2     3 1
     9    11    12 1
    10    12    13 ar
    11     5     3 1
    12     5     1 ar
    13     3     4 1
    14    13     1 ar
    15     1    14 1
    16     6    15 1
    17    13    16 1
    18    11    17 1
@<TRIPOS>SUBSTRUCTURE
     1 9FE         1 TEMP              0 ****  ****    0 ROOT
