@<TRIPOS>MOLECULE
molecule
   25    26     1     0     0
SMALL
bcc


@<TRIPOS>ATOM
      1 C12         -5.4320     1.1480     2.2860 cg         1 9FG       0.268800
      2 C11          0.0000     0.0000     0.0000 ca         1 9FG       0.168900
      3 C10          1.3810     0.0000     0.0000 ca         1 9FG      -0.196000
      4 C9           2.0760     0.0000     1.2010 ca         1 9FG       0.137100
      5 N2          -6.3300     1.6520     2.7670 n1         1 9FG      -0.364800
      6 C8           1.3870    -0.0010     2.4080 ca         1 9FG      -0.167000
      7 C7           0.0090    -0.0010     2.4180 ca         1 9FG      -0.087000
      8 N1          -2.9700     0.8200     1.9730 na         1 9FG      -0.020100
      9 C1          -2.5030     1.8380     2.9180 c3         1 9FG       0.027600
     10 C5          -2.1730     0.0060     1.2190 cc         1 9FG      -0.055300
     11 C6          -0.6960     0.0050     1.2120 ca         1 9FG      -0.066000
     12 C4          -2.9840    -0.8150     0.4640 cd         1 9FG      -0.178000
     13 C3          -4.3070    -0.4960     0.7650 cd         1 9FG      -0.137000
     14 C2          -4.2870     0.5190     1.7010 cc         1 9FG      -0.066300
     15 F1          -0.6770    -0.0000    -1.1700 f          1 9FG      -0.125900
     16 O1           3.4350    -0.0000     1.1970 oh         1 9FG      -0.516100
     17 H1           1.9220    -0.0040    -0.9380 ha         1 9FG       0.160000
     18 H2           1.9330    -0.0010     3.3440 ha         1 9FG       0.148000
     19 H3          -0.5260    -0.0020     3.3590 ha         1 9FG       0.143000
     20 H4          -1.8020     2.4970     2.4210 h1         1 9FG       0.058367
     21 H5          -2.0130     1.3550     3.7550 h1         1 9FG       0.058367
     22 H6          -3.3480     2.4130     3.2760 h1         1 9FG       0.058367
     23 H7          -2.6490    -1.5710    -0.2360 ha         1 9FG       0.163000
     24 H8          -5.1880    -0.9610     0.3390 ha         1 9FG       0.161000
     25 H9           3.7490     0.8880     1.1590 ho         1 9FG       0.425000
@<TRIPOS>BOND
     1     6     7 ar
     2     6     4 ar
     3     7    11 ar
     4     9     8 1
     5    16     4 1
     6     4     3 ar
     7     5     1 3
     8     8    14 1
     9     8    10 1
    10     1    14 1
    11    11    10 1
    12    11     2 ar
    13    14    13 2
    14    10    12 2
    15     3     2 ar
    16     2    15 1
    17    13    12 1
    18     3    17 1
    19     6    18 1
    20     7    19 1
    21     9    20 1
    22     9    21 1
    23     9    22 1
    24    12    23 1
    25    13    24 1
    26    16    25 1
@<TRIPOS>SUBSTRUCTURE
     1 9FG         1 TEMP              0 ****  ****    0 ROOT
