@<TRIPOS>MOLECULE
9FG
   25    26     1     0     0
SMALL
bcc


@<TRIPOS>ATOM
      1 C12         -5.4320     1.1480     2.2860 cg         1 9FG       0.270800
      2 C11          0.0000     0.0000     0.0000 ca         1 9FG       0.146900
      3 C10          1.3810     0.0000     0.0000 ca         1 9FG      -0.172000
      4 C9           2.0760     0.0000     1.2010 ca         1 9FG       0.154100
      5 N2          -6.3300     1.6520     2.7670 n1         1 9FG      -0.390800
      6 C8           1.3870    -0.0010     2.4080 ca         1 9FG      -0.145000
      7 C7           0.0090    -0.0010     2.4180 ca         1 9FG      -0.067000
      8 N1          -2.9700     0.8200     1.9730 na         1 9FG       0.485900
      9 C1          -2.5030     1.8380     2.9180 c3         1 9FG      -0.038400
     10 C5          -2.1730     0.0060     1.2190 cc         1 9FG      -0.244300
     11 C6          -0.6960     0.0050     1.2120 ca         1 9FG      -0.046000
     12 C4          -2.9840    -0.8150     0.4640 cd         1 9FG      -0.147000
     13 C3          -4.3070    -0.4960     0.7650 cd         1 9FG      -0.114000
     14 C2          -4.2870     0.5190     1.7010 cc         1 9FG      -0.211300
     15 F1          -0.6770    -0.0000    -1.1700 f          1 9FG      -0.120900
     16 O1           3.4350    -0.0000     1.1970 oh         1 9FG      -0.496100
     17 H1           1.9220    -0.0040    -0.9380 ha         1 9FG       0.133000
     18 H2           1.9330    -0.0010     3.3440 ha         1 9FG       0.120000
     19 H3          -0.5260    -0.0020     3.3590 ha         1 9FG       0.112000
     20 H4          -1.8020     2.4970     2.4210 h1         1 9FG       0.031033
     21 H5          -2.0130     1.3550     3.7550 h1         1 9FG       0.031033
     22 H6          -3.3480     2.4130     3.2760 h1         1 9FG       0.031033
     23 H7          -2.6490    -1.5710    -0.2360 ha         1 9FG       0.138000
     24 H8          -5.1880    -0.9610     0.3390 ha         1 9FG       0.133000
     25 H9           3.7490     0.8880     1.1590 ho         1 9FG       0.407000
@<TRIPOS>BOND
     1     1     5 3   
     2     1    14 1   
     3     2     3 ar  
     4     2    11 ar  
     5     2    15 1   
     6     3     4 ar  
     7     3    17 1   
     8     4     6 ar  
     9     4    16 1   
    10     6     7 ar  
    11     6    18 1   
    12     7    11 ar  
    13     7    19 1   
    14     8     9 1   
    15     8    10 1   
    16     8    14 1   
    17     9    20 1   
    18     9    21 1   
    19     9    22 1   
    20    10    11 1   
    21    10    12 2   
    22    12    13 1   
    23    12    23 1   
    24    13    14 2   
    25    13    24 1   
    26    16    25 1   
@<TRIPOS>SUBSTRUCTURE
     1 9FG         1 TEMP              0 ****  ****    0 ROOT
