@<TRIPOS>MOLECULE
molecule
   24    25     1     0     0
SMALL
bcc


@<TRIPOS>ATOM
      1 C10          0.0000     0.0000     0.0000 cc         1 9FH       0.375200
      2 C15          3.2450     0.0000     1.8160 c3         1 9FH      -0.020800
      3 C01         -0.2500    -0.7990     5.5420 ca         1 9FH      -0.123500
      4 C02          0.6210     0.0080     6.2500 ca         1 9FH      -0.159000
      5 C03          1.5230     0.8130     5.5790 ca         1 9FH      -0.123500
      6 C04          1.5560     0.8130     4.1980 ca         1 9FH      -0.141500
      7 C05          0.6820     0.0040     3.4840 ca         1 9FH       0.070800
      8 C06         -0.2230    -0.8040     4.1610 ca         1 9FH      -0.141500
      9 N07          0.7120     0.0010     2.0830 na         1 9FH       0.114300
     10 C08          1.8210     0.0000     1.3200 cc         1 9FH      -0.068600
     11 C09          1.4140     0.0000     0.0000 cd         1 9FH      -0.297900
     12 N11         -0.4040     0.0030     1.2400 nd         1 9FH      -0.570800
     13 C12          2.2890     0.0020    -1.1840 c          1 9FH       0.914200
     14 O13          1.7510     0.0020    -2.4190 o          1 9FH      -0.846300
     15 O14          3.4970     0.0020    -1.0480 o          1 9FH      -0.846300
     16 H1          -0.6360     0.0000    -0.8770 h4         1 9FH       0.060100
     17 H2           3.8700    -0.5450     1.1190 hc         1 9FH       0.050033
     18 H3           3.2890    -0.4750     2.7880 hc         1 9FH       0.050033
     19 H4           3.5990     1.0210     1.8970 hc         1 9FH       0.050033
     20 H7           2.2040     1.4440     6.1370 ha         1 9FH       0.121500
     21 H8           2.2620     1.4440     3.6720 ha         1 9FH       0.149000
     22 H9          -0.9050    -1.4370     3.6070 ha         1 9FH       0.149000
     23 H5          -0.9550    -1.4290     6.0710 ha         1 9FH       0.121500
     24 H6           0.5970     0.0090     7.3330 ha         1 9FH       0.116000
@<TRIPOS>BOND
     1     2    10 1
     2    15    13 1
     3     5     6 ar
     4     5     4 ar
     5     6     7 ar
     6     4     3 ar
     7    10    11 2
     8    10     9 1
     9    13    11 1
    10    13    14 1
    11     7     9 1
    12     7     8 ar
    13    11     1 1
    14     3     8 ar
    15     9    12 1
    16    12     1 2
    17     1    16 1
    18     2    17 1
    19     2    18 1
    20     2    19 1
    21     3    23 1
    22     4    24 1
    23     5    20 1
    24     6    21 1
    25     8    22 1
@<TRIPOS>SUBSTRUCTURE
     1 9FH         1 TEMP              0 ****  ****    0 ROOT
