@<TRIPOS>MOLECULE
9FJ
   42    44     1     0     0
SMALL
bcc


@<TRIPOS>ATOM
      1 O9           0.0000     0.0000     0.0000 o          1 9FJ      -0.883800
      2 C7           1.2140     0.0000     0.0000 c          1 9FJ       0.999200
      3 O8           1.8870     0.0000     1.1670 o          1 9FJ      -0.883800
      4 C6           1.9530    -0.0080    -1.2780 ca         1 9FJ      -0.174600
      5 C5           3.3480     0.1110    -1.3050 ca         1 9FJ      -0.128300
      6 C4           3.9970     0.0990    -2.5210 ca         1 9FJ       0.274200
      7 N3           3.3290    -0.0220    -3.6520 nb         1 9FJ      -0.570000
      8 C2           2.0190    -0.1370    -3.6820 ca         1 9FJ       0.247200
      9 C1           1.2770    -0.1400    -2.5030 ca         1 9FJ      -0.007700
     10 N10         -0.1070    -0.2620    -2.5390 nu         1 9FJ      -0.468600
     11 C11         -0.7870    -0.5080    -3.8120 c3         1 9FJ       0.158800
     12 C12         -2.3020    -0.4800    -3.5940 c3         1 9FJ       0.006600
     13 C17         -2.9980    -0.6180    -4.9240 ca         1 9FJ      -0.098300
     14 C18         -2.4800     0.0940    -5.9990 ca         1 9FJ      -0.065000
     15 C19         -3.0730     0.0160    -7.2410 ca         1 9FJ      -0.214000
     16 C20         -4.1970    -0.7770    -7.4190 ca         1 9FJ       0.135100
     17 O22         -4.7900    -0.8580    -8.6390 os         1 9FJ      -0.314900
     18 C23         -4.2040    -0.0980    -9.6980 c3         1 9FJ       0.244700
     19 C21         -4.7110    -1.4870    -6.3460 ca         1 9FJ      -0.154000
     20 C16         -4.1100    -1.4110    -5.0980 ca         1 9FJ      -0.035300
     21 C15         -4.7110    -2.2220    -3.9810 c3         1 9FJ       0.031900
     22 C14         -4.2270    -1.7120    -2.6250 c3         1 9FJ      -0.025400
     23 C13         -2.6970    -1.6230    -2.6610 c3         1 9FJ      -0.036400
     24 H2           3.9090     0.2110    -0.3840 ha         1 9FJ       0.128000
     25 H3           5.0760     0.1910    -2.5490 h4         1 9FJ      -0.039900
     26 H4           1.5120    -0.2360    -4.6340 h4         1 9FJ      -0.028900
     27 H5          -0.6410    -0.1340    -1.7030 hn         1 9FJ       0.380800
     28 H6          -0.4950    -1.4780    -4.1970 h1         1 9FJ       0.008200
     29 H7          -0.5110     0.2610    -4.5240 h1         1 9FJ       0.008200
     30 H8          -2.5850     0.4620    -3.1410 hc         1 9FJ       0.042700
     31 H9          -1.6030     0.7130    -5.8600 ha         1 9FJ       0.119000
     32 H10         -2.7200     0.6450    -8.0500 ha         1 9FJ       0.115000
     33 H11         -4.2370     0.9560    -9.4480 h1         1 9FJ      -0.005967
     34 H12         -3.1730    -0.4040    -9.8350 h1         1 9FJ      -0.005967
     35 H13         -4.7560    -0.2690   -10.6140 h1         1 9FJ      -0.005967
     36 H14         -5.5890    -2.1070    -6.4830 ha         1 9FJ       0.112000
     37 H15         -4.4190    -3.2580    -4.0960 hc         1 9FJ       0.015700
     38 H16         -5.7910    -2.1430    -4.0250 hc         1 9FJ       0.015700
     39 H17         -4.5340    -2.4010    -1.8470 hc         1 9FJ       0.015200
     40 H18         -4.6440    -0.7300    -2.4360 hc         1 9FJ       0.015200
     41 H19         -2.3210    -1.4260    -1.6640 hc         1 9FJ       0.037200
     42 H20         -2.2870    -2.5550    -3.0330 hc         1 9FJ       0.037200
@<TRIPOS>BOND
     1     1     2 1   
     2     2     3 1   
     3     2     4 1   
     4     4     5 ar  
     5     4     9 ar  
     6     5     6 ar  
     7     5    24 1   
     8     6     7 ar  
     9     6    25 1   
    10     7     8 ar  
    11     8     9 ar  
    12     8    26 1   
    13     9    10 1   
    14    10    11 1   
    15    10    27 1   
    16    11    12 1   
    17    11    28 1   
    18    11    29 1   
    19    12    13 1   
    20    12    23 1   
    21    12    30 1   
    22    13    14 ar  
    23    13    20 ar  
    24    14    15 ar  
    25    14    31 1   
    26    15    16 ar  
    27    15    32 1   
    28    16    17 1   
    29    16    19 ar  
    30    17    18 1   
    31    18    33 1   
    32    18    34 1   
    33    18    35 1   
    34    19    20 ar  
    35    19    36 1   
    36    20    21 1   
    37    21    22 1   
    38    21    37 1   
    39    21    38 1   
    40    22    23 1   
    41    22    39 1   
    42    22    40 1   
    43    23    41 1   
    44    23    42 1   
@<TRIPOS>SUBSTRUCTURE
     1 9FJ         1 TEMP              0 ****  ****    0 ROOT
