@<TRIPOS>MOLECULE
9FK
   37    40     1     0     0
SMALL
bcc


@<TRIPOS>ATOM
      1 O22          0.0000     0.0000     0.0000 o          1 9FK      -0.488800
      2 S21          1.4210     0.0000     0.0000 sy         1 9FK       0.970200
      3 O23          2.1980     0.0000     1.1900 o          1 9FK      -0.488800
      4 N24          1.8890    -1.3330    -0.8630 nz         1 9FK      -0.129500
      5 C19          1.9190     1.4180    -0.9190 cc         1 9FK      -0.202600
      6 S20          3.4700     2.2320    -0.7630 ss         1 9FK      -0.154800
      7 C16          3.0140     3.4050    -1.9920 cc         1 9FK       0.157400
      8 C17          1.7710     3.1310    -2.4350 cd         1 9FK      -0.182000
      9 C18          1.1770     2.0330    -1.8440 cd         1 9FK       0.087000
     10 C14          3.8640     4.5200    -2.4660 cc         1 9FK       0.238800
     11 C15          5.1210     4.8050    -2.0260 cd         1 9FK      -0.341600
     12 N11          5.5390     5.9010    -2.7170 na         1 9FK       0.683300
     13 N12          4.4890     6.2520    -3.5800 nd         1 9FK      -0.348800
     14 N13          3.5260     5.4150    -3.4080 nc         1 9FK      -0.224000
     15 C10          6.7720     6.5510    -2.5930 ca         1 9FK      -0.209200
     16 C9           7.2680     6.8670    -1.3470 ca         1 9FK      -0.052000
     17 C8           8.4930     7.5130    -1.2120 ca         1 9FK      -0.115000
     18 C7           9.2350     7.8490    -2.3030 ca         1 9FK      -0.027000
     19 C4           8.7650     7.5440    -3.5920 ca         1 9FK      -0.040000
     20 C3           7.5200     6.8820    -3.7410 ca         1 9FK       0.000000
     21 C5           9.5080     7.8790    -4.7370 ca         1 9FK      -0.074000
     22 C6           9.0230     7.5690    -5.9690 ca         1 9FK      -0.088000
     23 C1           7.7970     6.9220    -6.1160 ca         1 9FK      -0.061000
     24 C2           7.0550     6.5730    -5.0290 ca         1 9FK      -0.117000
     25 H18          0.1800     1.7000    -2.1060 ha         1 9FK       0.132000
     26 H17          1.2800     3.7210    -3.1990 ha         1 9FK       0.168000
     27 H15          5.6800     4.2650    -1.2710 h4         1 9FK       0.167000
     28 H9           6.6970     6.6100    -0.4630 ha         1 9FK       0.107000
     29 H8           8.8630     7.7510    -0.2220 ha         1 9FK       0.117000
     30 H7          10.1860     8.3520    -2.1780 ha         1 9FK       0.116000
     31 H5          10.4630     8.3820    -4.6380 ha         1 9FK       0.116000
     32 H2           6.1040     6.0710    -5.1580 ha         1 9FK       0.124000
     33 H6           9.5950     7.8350    -6.8500 ha         1 9FK       0.112000
     34 H1           7.4330     6.6860    -7.1090 ha         1 9FK       0.110000
     35 HN1          1.6550    -2.1610    -0.3520 hn         1 9FK       0.313800
     36 HN2          1.4170    -1.3420    -1.7460 hn         1 9FK       0.313800
     37 H243         2.8780    -1.3020    -1.0140 hn         1 9FK       0.313800
@<TRIPOS>BOND
     1     1     2 2   
     2     2     3 2   
     3     2     4 1   
     4     2     5 1   
     5     4    35 1   
     6     4    36 1   
     7     4    37 1   
     8     5     6 1   
     9     5     9 2   
    10     6     7 1   
    11     7     8 2   
    12     7    10 1   
    13     8     9 1   
    14     8    26 1   
    15     9    25 1   
    16    10    11 2   
    17    10    14 1   
    18    11    12 1   
    19    11    27 1   
    20    12    13 1   
    21    12    15 1   
    22    13    14 2   
    23    15    16 ar  
    24    15    20 ar  
    25    16    17 ar  
    26    16    28 1   
    27    17    18 ar  
    28    17    29 1   
    29    18    19 ar  
    30    18    30 1   
    31    19    20 ar  
    32    19    21 ar  
    33    20    24 ar  
    34    21    22 ar  
    35    21    31 1   
    36    22    23 ar  
    37    22    33 1   
    38    23    24 ar  
    39    23    34 1   
    40    24    32 1   
@<TRIPOS>SUBSTRUCTURE
     1 9FK         1 TEMP              0 ****  ****    0 ROOT
