@<TRIPOS>MOLECULE
molecule
   37    40     1     0     0
SMALL
bcc


@<TRIPOS>ATOM
      1 O22          0.0000     0.0000     0.0000 o          1 9FK      -0.517300
      2 S21          1.4210     0.0000     0.0000 sy         1 9FK       1.267200
      3 O23          2.1980     0.0000     1.1900 o          1 9FK      -0.517300
      4 N24          1.8890    -1.3330    -0.8630 nz         1 9FK      -0.807500
      5 C19          1.9190     1.4180    -0.9190 cc         1 9FK      -0.367600
      6 S20          3.4700     2.2320    -0.7630 ss         1 9FK      -0.010800
      7 C16          3.0140     3.4050    -1.9920 cc         1 9FK       0.078400
      8 C17          1.7710     3.1310    -2.4350 cd         1 9FK      -0.183000
      9 C18          1.1770     2.0330    -1.8440 cd         1 9FK       0.027000
     10 C14          3.8640     4.5200    -2.4660 cc         1 9FK       0.269800
     11 C15          5.1210     4.8050    -2.0260 cd         1 9FK      -0.177600
     12 N11          5.5390     5.9010    -2.7170 na         1 9FK       0.175300
     13 N12          4.4890     6.2520    -3.5800 nd         1 9FK      -0.134800
     14 N13          3.5260     5.4150    -3.4080 nc         1 9FK      -0.311000
     15 C10          6.7720     6.5510    -2.5930 ca         1 9FK      -0.022200
     16 C9           7.2680     6.8670    -1.3470 ca         1 9FK      -0.105000
     17 C8           8.4930     7.5130    -1.2120 ca         1 9FK      -0.131000
     18 C7           9.2350     7.8490    -2.3030 ca         1 9FK      -0.078000
     19 C4           8.7650     7.5440    -3.5920 ca         1 9FK      -0.032000
     20 C3           7.5200     6.8820    -3.7410 ca         1 9FK      -0.018000
     21 C5           9.5080     7.8790    -4.7370 ca         1 9FK      -0.109000
     22 C6           9.0230     7.5690    -5.9690 ca         1 9FK      -0.113000
     23 C1           7.7970     6.9220    -6.1160 ca         1 9FK      -0.102000
     24 C2           7.0550     6.5730    -5.0290 ca         1 9FK      -0.124000
     25 H18          0.1800     1.7000    -2.1060 ha         1 9FK       0.170000
     26 H17          1.2800     3.7210    -3.1990 ha         1 9FK       0.200000
     27 H15          5.6800     4.2650    -1.2710 h4         1 9FK       0.191000
     28 H9           6.6970     6.6100    -0.4630 ha         1 9FK       0.137000
     29 H8           8.8630     7.7510    -0.2220 ha         1 9FK       0.147000
     30 H7          10.1860     8.3520    -2.1780 ha         1 9FK       0.149000
     31 H5          10.4630     8.3820    -4.6380 ha         1 9FK       0.145000
     32 H2           6.1040     6.0710    -5.1580 ha         1 9FK       0.147000
     33 H6           9.5950     7.8350    -6.8500 ha         1 9FK       0.142000
     34 H1           7.4330     6.6860    -7.1090 ha         1 9FK       0.141000
     35 HN1          1.6550    -2.1610    -0.3520 hn         1 9FK       0.491800
     36 HN2          1.4170    -1.3420    -1.7460 hn         1 9FK       0.491800
     37 H243         2.8780    -1.3020    -1.0140 hn         1 9FK       0.491800
@<TRIPOS>BOND
     1     1     2 2
     2     2     3 2
     3     2     4 1
     4     2     5 1
     5     5     6 1
     6     5     9 2
     7     6     7 1
     8     7     8 2
     9     7    10 1
    10     8     9 1
    11    10    11 2
    12    10    14 1
    13    11    12 1
    14    12    13 1
    15    12    15 1
    16    13    14 2
    17    15    16 ar
    18    15    20 ar
    19    16    17 ar
    20    17    18 ar
    21    18    19 ar
    22    19    20 ar
    23    19    21 ar
    24    20    24 ar
    25    21    22 ar
    26    22    23 ar
    27    23    24 ar
    28     4    35 1
    29     4    36 1
    30     9    25 1
    31     8    26 1
    32    11    27 1
    33    16    28 1
    34    17    29 1
    35    18    30 1
    36    21    31 1
    37    24    32 1
    38    22    33 1
    39    23    34 1
    40    37     4 1
@<TRIPOS>SUBSTRUCTURE
     1 9FK         1 TEMP              0 ****  ****    0 ROOT
