@<TRIPOS>MOLECULE
9FL
   23    25     1     0     0
SMALL
bcc


@<TRIPOS>ATOM
      1 C9         -0.0120   -0.0000    0.0160 c3        1 9FL      0.005200
      2 C8A         1.4920   -0.0000   -0.0210 ca        1 9FL     -0.084300
      3 C8          2.3960   -0.0010    1.0230 ca        1 9FL     -0.118000
      4 C7          3.7670   -0.0010    0.7260 ca        1 9FL     -0.126000
      5 C6          4.2130   -0.0010   -0.5920 ca        1 9FL     -0.133000
      6 C5          3.3040   -0.0000   -1.6590 ca        1 9FL     -0.104000
      7 C4B         1.9480   -0.0000   -1.3750 cp        1 9FL     -0.041000
      8 C4A         0.7800    0.0000   -2.2530 cp        1 9FL     -0.041000
      9 C9A        -0.3940    0.0000   -1.4390 ca        1 9FL     -0.084300
     10 C1         -1.6480    0.0000   -2.0180 ca        1 9FL     -0.118000
     11 C2         -1.7430    0.0000   -3.4180 ca        1 9FL     -0.126000
     12 C3         -0.6000    0.0010   -4.2120 ca        1 9FL     -0.133000
     13 C4          0.6770    0.0000   -3.6340 ca        1 9FL     -0.104000
     14 H1         -0.4050   -0.9090    0.5380 hc        1 9FL      0.072700
     15 H2         -0.4050    0.9080    0.5390 hc        1 9FL      0.072700
     16 H3          2.0560   -0.0010    2.0680 ha        1 9FL      0.134000
     17 H4          4.4960   -0.0010    1.5500 ha        1 9FL      0.131000
     18 H6          5.2920   -0.0010   -0.8040 ha        1 9FL      0.131000
     19 H7          3.6630    0.0000   -2.6980 ha        1 9FL      0.135000
     20 H8         -2.5580    0.0000   -1.4010 ha        1 9FL      0.134000
     21 H9         -2.7370    0.0010   -3.8900 ha        1 9FL      0.131000
     22 H11        -0.6960    0.0010   -5.3080 ha        1 9FL      0.131000
     23 H12         1.5750    0.0010   -4.2680 ha        1 9FL      0.135000
@<TRIPOS>BOND
     1    1    2 1   
     2    1    9 1   
     3    1   14 1   
     4    1   15 1   
     5    2    3 ar  
     6    2    7 ar  
     7    3    4 ar  
     8    3   16 1   
     9    4    5 ar  
    10    4   17 1   
    11    5    6 ar  
    12    5   18 1   
    13    6    7 ar  
    14    6   19 1   
    15    7    8 1   
    16    8    9 ar  
    17    8   13 ar  
    18    9   10 ar  
    19   10   11 ar  
    20   10   20 1   
    21   11   12 ar  
    22   11   21 1   
    23   12   13 ar  
    24   12   22 1   
    25   13   23 1   
@<TRIPOS>SUBSTRUCTURE
     1 9FL         1 TEMP              0 ****  ****    0 ROOT
