@<TRIPOS>MOLECULE
molecule
   23    25     1     0     0
SMALL
bcc


@<TRIPOS>ATOM
      1 C9           0.0000     0.0000     0.0000 c3         1 9FL       0.012200
      2 C8A          1.5090     0.0000     0.0000 ca         1 9FL      -0.086300
      3 C8           2.4350     0.0000     1.0210 ca         1 9FL      -0.112000
      4 C7           3.7870    -0.0010     0.7290 ca         1 9FL      -0.123000
      5 C6           4.2130    -0.0000    -0.5880 ca         1 9FL      -0.130500
      6 C5           3.2930     0.0010    -1.6150 ca         1 9FL      -0.104000
      7 C4B          1.9270    -0.0000    -1.3280 cp         1 9FL      -0.041000
      8 C4A          0.7410    -0.0000    -2.2200 cp         1 9FL      -0.041000
      9 C9A         -0.4190     0.0000    -1.4500 ca         1 9FL      -0.086300
     10 C1          -1.6560     0.0000    -2.0570 ca         1 9FL      -0.112000
     11 C2          -1.7510     0.0000    -3.4370 ca         1 9FL      -0.123000
     12 C3          -0.6040     0.0000    -4.2110 ca         1 9FL      -0.130500
     13 C4           0.6380    -0.0000    -3.6120 ca         1 9FL      -0.104000
     14 H1          -0.3710    -0.8900     0.4940 hc         1 9FL       0.069700
     15 H2          -0.3710     0.8900     0.4940 hc         1 9FL       0.069700
     16 H3           2.1040    -0.0010     2.0520 ha         1 9FL       0.130000
     17 H4           4.5140    -0.0020     1.5320 ha         1 9FL       0.131000
     18 H6           5.2730    -0.0010    -0.8120 ha         1 9FL       0.131000
     19 H7           3.6300     0.0020    -2.6440 ha         1 9FL       0.130000
     20 H8          -2.5560    -0.0000    -1.4520 ha         1 9FL       0.130000
     21 H9          -2.7250     0.0000    -3.9120 ha         1 9FL       0.131000
     22 H11         -0.6830     0.0000    -5.2910 ha         1 9FL       0.131000
     23 H12          1.5330    -0.0000    -4.2220 ha         1 9FL       0.130000
@<TRIPOS>BOND
     1     4     5 ar
     2     4     3 ar
     3     5     6 ar
     4     3     2 ar
     5     6     7 ar
     6     2     7 ar
     7     2     1 1
     8     7     8 1
     9     1     9 1
    10     8     9 ar
    11     8    13 ar
    12     9    10 ar
    13    13    12 ar
    14    10    11 ar
    15    12    11 ar
    16     1    14 1
    17     1    15 1
    18     3    16 1
    19     4    17 1
    20     5    18 1
    21     6    19 1
    22    10    20 1
    23    11    21 1
    24    12    22 1
    25    13    23 1
@<TRIPOS>SUBSTRUCTURE
     1 9FL         1 TEMP              0 ****  ****    0 ROOT
