@<TRIPOS>MOLECULE
molecule
   28    29     1     0     0
SMALL
bcc


@<TRIPOS>ATOM
      1 C13          0.0000     0.0000     0.0000 ca         1 9FN      -0.148600
      2 C15          2.0840     0.0000     1.1970 ca         1 9FN      -0.156000
      3 C17          0.0180    -0.0010     2.4200 ca         1 9FN      -0.096000
      4 O01         -0.8320     1.0310    -1.9240 o          1 9FN      -0.529100
      5 C02         -0.7440     0.0060    -1.2780 c          1 9FN       0.635300
      6 C03         -1.3810    -1.2340    -1.7680 ca         1 9FN      -0.110600
      7 C04         -1.1690    -2.4420    -1.0990 ca         1 9FN      -0.030000
      8 C05         -1.7660    -3.5950    -1.5610 ca         1 9FN      -0.148000
      9 C06         -2.5740    -3.5580    -2.6870 ca         1 9FN       0.079400
     10 Cl          -3.3170    -5.0160    -3.2660 cl         1 9FN      -0.075400
     11 C08         -2.7870    -2.3630    -3.3540 ca         1 9FN      -0.173200
     12 C09         -2.2000    -1.2010    -2.8990 ca         1 9FN      -0.005000
     13 N10         -3.6510    -2.3310    -4.5550 no         1 9FN       0.299200
     14 O11         -3.8390    -1.2820    -5.1430 o          1 9FN      -0.215500
     15 O12         -4.1740    -3.3560    -4.9560 o          1 9FN      -0.215500
     16 C14          1.3930     0.0000     0.0000 ca         1 9FN      -0.125000
     17 C16          1.4000    -0.0010     2.4000 ca         1 9FN      -0.146000
     18 C18         -0.6960    -0.0010     1.2250 ca         1 9FN      -0.077600
     19 C19         -2.1740    -0.0010     1.2410 c          1 9FN       0.875200
     20 O20         -2.8350    -0.1080     2.4100 o          1 9FN      -0.818800
     21 O21         -2.7920     0.0960     0.2010 o          1 9FN      -0.818800
     22 H1           3.1670    -0.0000     1.1930 ha         1 9FN       0.110000
     23 H2          -0.5100    -0.0020     3.3660 ha         1 9FN       0.161000
     24 H3          -0.5380    -2.4720    -0.2190 ha         1 9FN       0.162000
     25 H4          -1.6030    -4.5330    -1.0440 ha         1 9FN       0.149000
     26 H5          -2.3670    -0.2670    -3.4220 ha         1 9FN       0.187000
     27 H6           1.9350     0.0010    -0.9380 ha         1 9FN       0.117000
     28 H7           1.9520    -0.0010     3.3320 ha         1 9FN       0.111000
@<TRIPOS>BOND
     1    15    13 1
     2    10     9 1
     3    13    14 1
     4    13    11 1
     5     9    11 ar
     6     9     8 ar
     7    11    12 ar
     8     8     7 ar
     9    12     6 ar
    10     7     6 ar
    11     6     5 1
    12     5     4 2
    13     5     1 1
    14    21    19 1
    15     1    16 ar
    16     1    18 ar
    17    16     2 ar
    18    19    18 1
    19    19    20 1
    20    18     3 ar
    21     2    17 ar
    22     3    17 ar
    23     2    22 1
    24     3    23 1
    25     7    24 1
    26     8    25 1
    27    12    26 1
    28    16    27 1
    29    17    28 1
@<TRIPOS>SUBSTRUCTURE
     1 9FN         1 TEMP              0 ****  ****    0 ROOT
