@<TRIPOS>MOLECULE
9FN
   28    29     1     0     0
SMALL
bcc


@<TRIPOS>ATOM
      1 C13          0.0000     0.0000     0.0000 ca         1 9FN      -0.151600
      2 C15          2.0840     0.0000     1.1970 ca         1 9FN      -0.135000
      3 C17          0.0180    -0.0010     2.4200 ca         1 9FN      -0.068000
      4 O01         -0.8320     1.0310    -1.9240 o          1 9FN      -0.569100
      5 C02         -0.7440     0.0060    -1.2780 c          1 9FN       0.697300
      6 C03         -1.3810    -1.2340    -1.7680 ca         1 9FN      -0.130600
      7 C04         -1.1690    -2.4420    -1.0990 ca         1 9FN       0.016000
      8 C05         -1.7660    -3.5950    -1.5610 ca         1 9FN      -0.139000
      9 C06         -2.5740    -3.5580    -2.6870 ca         1 9FN       0.034400
     10 Cl          -3.3170    -5.0160    -3.2660 cl         1 9FN       0.018600
     11 C08         -2.7870    -2.3630    -3.3540 ca         1 9FN      -0.474200
     12 C09         -2.2000    -1.2010    -2.8990 ca         1 9FN       0.061000
     13 N10         -3.6510    -2.3310    -4.5550 no         1 9FN       1.058200
     14 O11         -3.8390    -1.2820    -5.1430 o          1 9FN      -0.464000
     15 O12         -4.1740    -3.3560    -4.9560 o          1 9FN      -0.464000
     16 C14          1.3930     0.0000     0.0000 ca         1 9FN      -0.101000
     17 C16          1.4000    -0.0010     2.4000 ca         1 9FN      -0.125000
     18 C18         -0.6960    -0.0010     1.2250 ca         1 9FN      -0.076600
     19 C19         -2.1740    -0.0010     1.2410 c          1 9FN       0.967200
     20 O20         -2.8350    -0.1080     2.4100 o          1 9FN      -0.870300
     21 O21         -2.7920     0.0960     0.2010 o          1 9FN      -0.870300
     22 H1           3.1670    -0.0000     1.1930 ha         1 9FN       0.087000
     23 H2          -0.5100    -0.0020     3.3660 ha         1 9FN       0.133000
     24 H3          -0.5380    -2.4720    -0.2190 ha         1 9FN       0.123000
     25 H4          -1.6030    -4.5330    -1.0440 ha         1 9FN       0.116000
     26 H5          -2.3670    -0.2670    -3.4220 ha         1 9FN       0.149000
     27 H6           1.9350     0.0010    -0.9380 ha         1 9FN       0.092000
     28 H7           1.9520    -0.0010     3.3320 ha         1 9FN       0.087000
@<TRIPOS>BOND
     1     1     5 1   
     2     1    16 ar  
     3     1    18 ar  
     4     2    16 ar  
     5     2    17 ar  
     6     2    22 1   
     7     3    17 ar  
     8     3    18 ar  
     9     3    23 1   
    10     4     5 2   
    11     5     6 1   
    12     6     7 ar  
    13     6    12 ar  
    14     7     8 ar  
    15     7    24 1   
    16     8     9 ar  
    17     8    25 1   
    18     9    10 1   
    19     9    11 ar  
    20    11    12 ar  
    21    11    13 1   
    22    12    26 1   
    23    13    14 1   
    24    13    15 1   
    25    16    27 1   
    26    17    28 1   
    27    18    19 1   
    28    19    20 1   
    29    19    21 1   
@<TRIPOS>SUBSTRUCTURE
     1 9FN         1 TEMP              0 ****  ****    0 ROOT
