@<TRIPOS>MOLECULE
molecule
   28    29     1     0     0
SMALL
bcc


@<TRIPOS>ATOM
      1 C1           0.0000     0.0000     0.0000 c3         1 9FQ       0.094100
      2 C2           1.5310     0.0000     0.0000 c3         1 9FQ       0.081100
      3 C3           2.0660     0.0000     1.4300 c3         1 9FQ       0.114100
      4 C4           1.5970     1.2780     2.1330 c3         1 9FQ       0.145100
      5 C5           0.0700     1.2620     2.2020 c3         1 9FQ      -0.065700
      6 C6          -0.4160     2.5360     2.8950 c3         1 9FQ       0.154400
      7 C7          -0.5500     1.1800     0.8190 c3         1 9FQ       0.119100
      8 O8          -0.4150     0.3460    -1.3520 os         1 9FQ      -0.522500
      9 O9           2.0020    -1.1650    -0.6800 oh         1 9FQ      -0.585800
     10 O10          3.4940    -0.0400     1.4070 oh         1 9FQ      -0.591800
     11 O11          2.1370     1.3250     3.4550 oh         1 9FQ      -0.573800
     12 O12          0.0280     2.5380     4.2540 oh         1 9FQ      -0.588800
     13 O13         -0.2700     2.3390     0.0230 os         1 9FQ      -0.541500
     14 S14         -0.1960     1.8650    -1.4170 s6         1 9FQ       1.751000
     15 O15          1.1440     2.0630    -1.8450 o          1 9FQ      -0.638800
     16 O16         -1.3210     2.4170    -2.0870 o          1 9FQ      -0.638800
     17 H1          -0.4120    -0.9490     0.3210 h1         1 9FQ       0.141700
     18 H2           1.8860     0.8860    -0.5120 h1         1 9FQ       0.103700
     19 H3           1.6830    -0.8640     1.9590 h1         1 9FQ       0.056700
     20 H4           1.9250     2.1430     1.5700 h1         1 9FQ       0.062700
     21 H5          -0.2450     0.4000     2.7780 hc         1 9FQ       0.091700
     22 H6          -1.4980     2.5720     2.8680 h1         1 9FQ       0.035200
     23 H7          -0.0130     3.4020     2.3830 h1         1 9FQ       0.035200
     24 H8          -1.6230     1.0710     0.9190 h1         1 9FQ       0.095700
     25 H9           2.5860    -0.9080    -1.3750 ho         1 9FQ       0.429000
     26 H10          3.7940    -0.8260     1.8340 ho         1 9FQ       0.419000
     27 H11          2.9440     1.8120     3.4480 ho         1 9FQ       0.416000
     28 H12         -0.5060     3.1300     4.7580 ho         1 9FQ       0.403000
@<TRIPOS>BOND
     1    10     3 1
     2    11     4 1
     3     4     3 1
     4     4     5 1
     5     3     2 1
     6     2     9 1
     7     2     1 1
     8     6     5 1
     9     6    12 1
    10     5     7 1
    11    15    14 2
    12    13     7 1
    13    13    14 1
    14     7     1 1
    15     1     8 1
    16    14     8 1
    17    14    16 2
    18     1    17 1
    19     2    18 1
    20     3    19 1
    21     4    20 1
    22     5    21 1
    23     6    22 1
    24     6    23 1
    25     7    24 1
    26     9    25 1
    27    10    26 1
    28    11    27 1
    29    12    28 1
@<TRIPOS>SUBSTRUCTURE
     1 9FQ         1 TEMP              0 ****  ****    0 ROOT
