@<TRIPOS>MOLECULE
9FS
   53    57     1     0     0
SMALL
bcc


@<TRIPOS>ATOM
      1 C14          0.0000     0.0000     0.0000 ca         1 9FS       0.449200
      2 C5           2.5960     0.0620    -3.4630 cc         1 9FS      -0.193600
      3 C6           1.5840     0.1000    -2.5690 cd         1 9FS      -0.321300
      4 C11          1.3310     0.0000     2.3870 ca         1 9FS      -0.341600
      5 C7           2.1430     0.0000    -1.2810 cd         1 9FS       0.421800
      6 C9           1.3910     0.0000     0.0000 ca         1 9FS      -0.239800
      7 C10          2.0730     0.0000     1.2220 ca         1 9FS       0.011000
      8 C12         -0.0590    -0.0040     2.3080 ca         1 9FS       0.562200
      9 C3           5.9410     1.0360    -2.8500 c3         1 9FS      -0.009600
     10 C1           5.7520    -1.4520    -2.9610 c3         1 9FS      -0.009600
     11 N4           3.7540    -0.0560    -2.7780 na         1 9FS       0.515400
     12 N8           3.4490    -0.0930    -1.4120 nc         1 9FS      -0.637800
     13 N13         -0.6730    -0.0000     1.1350 nb         1 9FS      -0.597000
     14 N15         -0.8120    -0.0150     3.4760 nv         1 9FS      -0.671500
     15 C16          2.0180    -0.0050     3.7280 c3         1 9FS       0.657200
     16 F17          1.6400     1.1300     4.4510 f          1 9FS      -0.208633
     17 F18          1.6500    -1.1540     4.4370 f          1 9FS      -0.208633
     18 F19          3.4050     0.0010     3.5410 f          1 9FS      -0.208633
     19 C20          2.4570     0.1340    -4.9620 cx         1 9FS       0.023600
     20 C21          1.2280    -0.5260    -5.5890 cx         1 9FS      -0.128700
     21 C22          1.3370     1.0110    -5.5260 cx         1 9FS      -0.128700
     22 C23          1.4400     1.4660    -6.9970 c3         1 9FS       0.196300
     23 N24          0.8120     0.3670    -7.7750 n3         1 9FS      -0.543600
     24 C25          1.2870    -0.9040    -7.0850 c3         1 9FS       0.196300
     25 C26          1.2550     0.3930    -9.1750 cy         1 9FS       0.028500
     26 C27          0.7280     1.6010    -9.9710 cy         1 9FS       0.208400
     27 O28          0.4750     0.6520   -11.0260 oq         1 9FS      -0.409600
     28 C29          0.3900    -0.4670   -10.1160 cy         1 9FS       0.208400
     29 H1          -0.5360     0.0030    -0.9410 h4         1 9FS      -0.013900
     30 H2           0.5300     0.1900    -2.8020 ha         1 9FS       0.141000
     31 H3           3.1560     0.0020     1.2530 ha         1 9FS       0.142000
     32 H4           6.8730     1.0750    -3.4010 hc         1 9FS       0.018033
     33 H5           6.1500     0.9090    -1.7950 hc         1 9FS       0.018033
     34 H6           5.3940     1.9590    -3.0010 hc         1 9FS       0.018033
     35 H7           6.6790    -1.5750    -3.5070 hc         1 9FS       0.018033
     36 H8           5.0900    -2.2800    -3.1830 hc         1 9FS       0.018033
     37 H9           5.9600    -1.4310    -1.8980 hc         1 9FS       0.018033
     38 H10          5.0220    -0.0780    -4.4420 h1         1 9FS       0.041700
     39 H11         -1.1090     0.8470     3.8880 hn         1 9FS       0.288800
     40 H12         -1.1020    -0.8860     3.8760 hn         1 9FS       0.288800
     41 H13          3.3510     0.0960    -5.5720 hc         1 9FS       0.059700
     42 H14          0.4450    -0.9130    -4.9470 hc         1 9FS       0.081200
     43 H15          0.6020     1.4420    -4.8570 hc         1 9FS       0.081200
     44 H16          0.8940     2.3900    -7.1440 h1         1 9FS       0.017700
     45 H17          2.4780     1.5830    -7.2830 h1         1 9FS       0.017700
     46 H19          0.6160    -1.7270    -7.2970 h1         1 9FS       0.017700
     47 H20          2.3020    -1.1410    -7.3790 h1         1 9FS       0.017700
     48 H21          2.3170     0.2290    -9.3130 h1         1 9FS       0.039700
     49 H22          1.5000     2.3190   -10.2190 h1         1 9FS       0.023450
     50 H23         -0.1770     2.0260    -9.5530 h1         1 9FS       0.023450
     51 H24          0.9000    -1.3510   -10.4780 h1         1 9FS       0.023450
     52 H25         -0.6120    -0.6360    -9.7400 h1         1 9FS       0.023450
     53 C2           5.0950    -0.1310    -3.3620 c3         1 9FS      -0.045000
@<TRIPOS>BOND
     1     1     6 ar  
     2     1    13 ar  
     3     1    29 1   
     4     2     3 2   
     5     2    11 1   
     6     2    19 1   
     7     3     5 1   
     8     3    30 1   
     9     4     7 ar  
    10     4     8 ar  
    11     4    15 1   
    12     5     6 1   
    13     5    12 2   
    14     6     7 ar  
    15     7    31 1   
    16     8    13 ar  
    17     8    14 1   
    18     9    32 1   
    19     9    33 1   
    20     9    34 1   
    21     9    53 1   
    22    10    35 1   
    23    10    36 1   
    24    10    37 1   
    25    10    53 1   
    26    11    12 1   
    27    11    53 1   
    28    14    39 1   
    29    14    40 1   
    30    15    16 1   
    31    15    17 1   
    32    15    18 1   
    33    19    20 1   
    34    19    21 1   
    35    19    41 1   
    36    20    21 1   
    37    20    24 1   
    38    20    42 1   
    39    21    22 1   
    40    21    43 1   
    41    22    23 1   
    42    22    44 1   
    43    22    45 1   
    44    23    24 1   
    45    23    25 1   
    46    24    46 1   
    47    24    47 1   
    48    25    26 1   
    49    25    28 1   
    50    25    48 1   
    51    26    27 1   
    52    26    49 1   
    53    26    50 1   
    54    27    28 1   
    55    28    51 1   
    56    28    52 1   
    57    38    53 1   
@<TRIPOS>SUBSTRUCTURE
     1 9FS         1 TEMP              0 ****  ****    0 ROOT
