@<TRIPOS>MOLECULE
molecule
   53    57     1     0     0
SMALL
bcc


@<TRIPOS>ATOM
      1 C14          0.0000     0.0000     0.0000 ca         1 9FS       0.470200
      2 C5           2.5960     0.0620    -3.4630 cc         1 9FS      -0.028600
      3 C6           1.5840     0.1000    -2.5690 cd         1 9FS      -0.337300
      4 C11          1.3310     0.0000     2.3870 ca         1 9FS      -0.317600
      5 C7           2.1430     0.0000    -1.2810 cd         1 9FS       0.391800
      6 C9           1.3910     0.0000     0.0000 ca         1 9FS      -0.245800
      7 C10          2.0730     0.0000     1.2220 ca         1 9FS      -0.024000
      8 C12         -0.0590    -0.0040     2.3080 ca         1 9FS       0.728200
      9 C3           5.9410     1.0360    -2.8500 c3         1 9FS      -0.105600
     10 C1           5.7520    -1.4520    -2.9610 c3         1 9FS      -0.105600
     11 N4           3.7540    -0.0560    -2.7780 na         1 9FS       0.083400
     12 N8           3.4490    -0.0930    -1.4120 nc         1 9FS      -0.500800
     13 N13         -0.6730    -0.0000     1.1350 nb         1 9FS      -0.711000
     14 N15         -0.8120    -0.0150     3.4760 nv         1 9FS      -1.085500
     15 C16          2.0180    -0.0050     3.7280 c3         1 9FS       0.689200
     16 F17          1.6400     1.1300     4.4510 f          1 9FS      -0.223967
     17 F18          1.6500    -1.1540     4.4370 f          1 9FS      -0.223967
     18 F19          3.4050     0.0010     3.5410 f          1 9FS      -0.223967
     19 C20          2.4570     0.1340    -4.9620 cx         1 9FS      -0.031400
     20 C21          1.2280    -0.5260    -5.5890 cx         1 9FS      -0.138200
     21 C22          1.3370     1.0110    -5.5260 cx         1 9FS      -0.138200
     22 C23          1.4400     1.4660    -6.9970 c3         1 9FS       0.172800
     23 N24          0.8120     0.3670    -7.7750 n3         1 9FS      -0.693600
     24 C25          1.2870    -0.9040    -7.0850 c3         1 9FS       0.172800
     25 C26          1.2550     0.3930    -9.1750 cy         1 9FS       0.069500
     26 C27          0.7280     1.6010    -9.9710 cy         1 9FS       0.124400
     27 O28          0.4750     0.6520   -11.0260 oq         1 9FS      -0.413600
     28 C29          0.3900    -0.4670   -10.1160 cy         1 9FS       0.124400
     29 H1          -0.5360     0.0030    -0.9410 h4         1 9FS       0.032100
     30 H2           0.5300     0.1900    -2.8020 ha         1 9FS       0.154000
     31 H3           3.1560     0.0020     1.2530 ha         1 9FS       0.173000
     32 H4           6.8730     1.0750    -3.4010 hc         1 9FS       0.050867
     33 H5           6.1500     0.9090    -1.7950 hc         1 9FS       0.050867
     34 H6           5.3940     1.9590    -3.0010 hc         1 9FS       0.050867
     35 H7           6.6790    -1.5750    -3.5070 hc         1 9FS       0.050867
     36 H8           5.0900    -2.2800    -3.1830 hc         1 9FS       0.050867
     37 H9           5.9600    -1.4310    -1.8980 hc         1 9FS       0.050867
     38 H10          5.0220    -0.0780    -4.4420 h1         1 9FS       0.065700
     39 H11         -1.1090     0.8470     3.8880 hn         1 9FS       0.446300
     40 H12         -1.1020    -0.8860     3.8760 hn         1 9FS       0.446300
     41 H13          3.3510     0.0960    -5.5720 hc         1 9FS       0.087700
     42 H14          0.4450    -0.9130    -4.9470 hc         1 9FS       0.105200
     43 H15          0.6020     1.4420    -4.8570 hc         1 9FS       0.105200
     44 H16          0.8940     2.3900    -7.1440 h1         1 9FS       0.050700
     45 H17          2.4780     1.5830    -7.2830 h1         1 9FS       0.050700
     46 H19          0.6160    -1.7270    -7.2970 h1         1 9FS       0.050700
     47 H20          2.3020    -1.1410    -7.3790 h1         1 9FS       0.050700
     48 H21          2.3170     0.2290    -9.3130 h1         1 9FS       0.055700
     49 H22          1.5000     2.3190   -10.2190 h1         1 9FS       0.065700
     50 H23         -0.1770     2.0260    -9.5530 h1         1 9FS       0.065700
     51 H24          0.9000    -1.3510   -10.4780 h1         1 9FS       0.065700
     52 H25         -0.6120    -0.6360    -9.7400 h1         1 9FS       0.065700
     53 C2           5.0950    -0.1310    -3.3620 c3         1 9FS       0.078000
@<TRIPOS>BOND
     1    27    26 1
     2    27    28 1
     3    26    25 1
     4    28    25 1
     5    22    23 1
     6    22    21 1
     7    25    23 1
     8    23    24 1
     9    21    19 1
    10    21    20 1
    11     9    53 1
    12    19    20 1
    13    19     2 1
    14    24    20 1
    15     2    11 1
    16     2     3 2
    17    53    11 1
    18    53    10 1
    19    11    12 1
    20     3     5 1
    21    12     5 2
    22     5     6 1
    23     6     1 ar
    24     6     7 ar
    25     1    13 ar
    26     7     4 ar
    27    13     8 ar
    28    17    15 1
    29     4     8 ar
    30     4    15 1
    31     8    14 1
    32    16    15 1
    33    15    18 1
    34     1    29 1
    35     3    30 1
    36     7    31 1
    37     9    32 1
    38     9    33 1
    39     9    34 1
    40    10    35 1
    41    10    36 1
    42    10    37 1
    43    53    38 1
    44    14    39 1
    45    14    40 1
    46    19    41 1
    47    20    42 1
    48    21    43 1
    49    22    44 1
    50    22    45 1
    51    24    46 1
    52    24    47 1
    53    25    48 1
    54    26    49 1
    55    26    50 1
    56    28    51 1
    57    28    52 1
@<TRIPOS>SUBSTRUCTURE
     1 9FS         1 TEMP              0 ****  ****    0 ROOT
