@<TRIPOS>MOLECULE
molecule
   60    64     1     0     0
SMALL
bcc


@<TRIPOS>ATOM
      1 C10          0.0000     0.0000     0.0000 c          1 9FU       0.571300
      2 C13         -1.8280    -1.3000     1.0160 c3         1 9FU      -0.079600
      3 C15          4.1500     0.6760     4.6440 c3         1 9FU       0.005400
      4 C17          3.5820     1.0970     7.0270 ce         1 9FU      -0.240400
      5 C20          5.5400     0.3870     5.1560 c2         1 9FU      -0.084400
      6 C21          7.3560     0.4320     6.5590 c          1 9FU       0.736800
      7 C22          6.7140    -0.2590     4.4900 c3         1 9FU       0.159600
      8 C24          4.2300     2.1090     4.0760 c3         1 9FU      -0.082100
      9 C01          1.4880     0.0170     2.4770 c3         1 9FU      -0.018800
     10 C02          0.1150    -0.6410     2.4170 c3         1 9FU      -0.049700
     11 C03         -0.5680    -0.5000     3.7770 c3         1 9FU      -0.078400
     12 C04          0.2390    -1.2610     4.8260 c3         1 9FU      -0.063400
     13 C05          1.7080    -0.8650     4.8540 c3         1 9FU       0.166800
     14 C06          2.3420    -0.7570     3.4800 c3         1 9FU      -0.072700
     15 C07          1.3520     1.4720     2.9080 c3         1 9FU      -0.102100
     16 C08          2.1510     0.0000     1.1300 c2         1 9FU      -0.105200
     17 C09          1.4580     0.0000     0.0000 ce         1 9FU      -0.239200
     18 C11         -0.7800    -0.1920     1.2810 c3         1 9FU      -0.145000
     19 O01         -0.6040     0.1420    -1.0540 o          1 9FU      -0.523100
     20 C12         -1.5490     1.0920     1.6120 c3         1 9FU      -0.079600
     21 O02          1.9030     0.3640     5.5990 os         1 9FU      -0.316900
     22 C14          3.1960     0.6940     5.8070 c2         1 9FU       0.136900
     23 C16          3.7800    -0.2770     3.5300 c3         1 9FU      -0.068400
     24 C18          4.9490     1.2630     7.3780 c          1 9FU       0.611500
     25 C19          5.9310     0.7120     6.4140 ce         1 9FU      -0.283400
     26 O03          7.8320    -0.1050     5.4150 os         1 9FU      -0.381900
     27 O04          8.0180     0.6580     7.5520 o          1 9FU      -0.529500
     28 O05          5.2900     1.8050     8.4100 o          1 9FU      -0.483100
     29 C23          2.5260     1.3850     8.0610 c3         1 9FU      -0.031900
     30 C25          2.4510    -1.9840     5.6240 c3         1 9FU      -0.125100
     31 H1          -2.4370    -1.0250     0.1630 hc         1 9FU       0.045367
     32 H2          -1.3210    -2.2360     0.8110 hc         1 9FU       0.045367
     33 H3          -2.4600    -1.4160     1.8890 hc         1 9FU       0.045367
     34 H5           6.5140    -1.3090     4.3190 h1         1 9FU       0.083700
     35 H6           6.9340     0.2430     3.5550 h1         1 9FU       0.083700
     36 H7           4.3950     2.0650     3.0060 hc         1 9FU       0.054033
     37 H8           3.3010     2.6290     4.2760 hc         1 9FU       0.054033
     38 H9           5.0490     2.6380     4.5460 hc         1 9FU       0.054033
     39 H10          0.2890    -1.7000     2.2680 hc         1 9FU       0.049700
     40 H11         -1.5680    -0.9120     3.7230 hc         1 9FU       0.058200
     41 H12         -0.6170     0.5470     4.0500 hc         1 9FU       0.058200
     42 H13          0.1710    -2.3210     4.6130 hc         1 9FU       0.061700
     43 H14         -0.1900    -1.0680     5.8010 hc         1 9FU       0.061700
     44 H15          1.1680     1.5180     3.9740 hc         1 9FU       0.050700
     45 H16          0.5240     1.9290     2.3790 hc         1 9FU       0.050700
     46 H17          2.2660     2.0050     2.6760 hc         1 9FU       0.050700
     47 H18          3.2330    -0.0000     1.0790 ha         1 9FU       0.128000
     48 H19          1.9830     0.1380    -0.9380 ha         1 9FU       0.151000
     49 H20         -1.7070     1.1520     2.6820 hc         1 9FU       0.045367
     50 H21         -0.9780     1.9510     1.2820 hc         1 9FU       0.045367
     51 H22         -2.5070     1.0790     1.1060 hc         1 9FU       0.045367
     52 H24          3.9980     0.2130     2.5890 hc         1 9FU       0.053700
     53 H25          1.7090     1.9280     7.6010 hc         1 9FU       0.052367
     54 H26          2.1550     0.4520     8.4680 hc         1 9FU       0.052367
     55 H27          2.9530     1.9820     8.8570 hc         1 9FU       0.052367
     56 H28          3.5120    -1.7650     5.6470 hc         1 9FU       0.049700
     57 H29          2.0720    -2.0380     6.6380 hc         1 9FU       0.049700
     58 H30          2.2890    -2.9330     5.1270 hc         1 9FU       0.049700
     59 H4           2.3880    -1.7710     3.1010 hc         1 9FU       0.060700
     60 H23          4.4170    -1.1490     3.6150 hc         1 9FU       0.053700
@<TRIPOS>BOND
     1    12    11 1
     2    12    13 1
     3    11    10 1
     4    20    18 1
     5    21    13 1
     6    21    22 1
     7     8     3 1
     8    13    30 1
     9    13    14 1
    10     2    18 1
    11    10    18 1
    12    10     9 1
    13    29     4 1
    14    18     1 1
    15    22     4 2
    16    22     3 1
    17    15     9 1
    18     4    24 1
    19     3    23 1
    20     3     5 1
    21    14     9 1
    22    14    23 1
    23     9    16 1
    24     1    19 2
    25     1    17 1
    26    24    28 2
    27    24    25 1
    28     5    25 2
    29     5     7 1
    30    25     6 1
    31    16    17 2
    32     7    26 1
    33     6    26 1
    34     6    27 2
    35     2    31 1
    36     2    32 1
    37     2    33 1
    38     7    34 1
    39     7    35 1
    40     8    36 1
    41     8    37 1
    42     8    38 1
    43    10    39 1
    44    11    40 1
    45    11    41 1
    46    12    42 1
    47    12    43 1
    48    15    44 1
    49    15    45 1
    50    15    46 1
    51    16    47 1
    52    17    48 1
    53    20    49 1
    54    20    50 1
    55    20    51 1
    56    23    52 1
    57    29    53 1
    58    29    54 1
    59    29    55 1
    60    30    56 1
    61    30    57 1
    62    30    58 1
    63    14    59 1
    64    23    60 1
@<TRIPOS>SUBSTRUCTURE
     1 9FU         1 TEMP              0 ****  ****    0 ROOT
