@<TRIPOS>MOLECULE
molecule
   55    58     1     0     0
SMALL
bcc


@<TRIPOS>ATOM
      1 C14          0.0000     0.0000     0.0000 ca         1 9FV       0.470200
      2 C5           2.5980     0.0650    -3.4630 cc         1 9FV      -0.059600
      3 C6           1.5850     0.1010    -2.5680 cd         1 9FV      -0.337300
      4 C11          1.3310    -0.0010     2.3870 ca         1 9FV      -0.317600
      5 C7           2.1430     0.0010    -1.2800 cd         1 9FV       0.389800
      6 C9           1.3920     0.0000     0.0000 ca         1 9FV      -0.244800
      7 C10          2.0720     0.0000     1.2230 ca         1 9FV      -0.026000
      8 C12         -0.0590    -0.0060     2.3080 ca         1 9FV       0.727200
      9 C3           5.9420     1.0390    -2.8480 c3         1 9FV      -0.104600
     10 C1           5.7530    -1.4510    -2.9590 c3         1 9FV      -0.104600
     11 N4           3.7540    -0.0530    -2.7770 na         1 9FV       0.079400
     12 N8           3.4490    -0.0920    -1.4100 nc         1 9FV      -0.504800
     13 N13         -0.6720    -0.0000     1.1340 nb         1 9FV      -0.712000
     14 N15         -0.8130    -0.0170     3.4750 nv         1 9FV      -1.085500
     15 C16          2.0180    -0.0080     3.7290 c3         1 9FV       0.689200
     16 F17          1.6390     1.1280     4.4520 f          1 9FV      -0.223633
     17 F18          1.6480    -1.1560     4.4360 f          1 9FV      -0.223633
     18 F19          3.4040    -0.0000     3.5420 f          1 9FV      -0.223633
     19 C20          2.4590     0.1370    -4.9610 c3         1 9FV      -0.007400
     20 C21          1.1750    -0.5770    -5.3920 c3         1 9FV      -0.070900
     21 C22          1.0080    -0.4470    -6.9080 c3         1 9FV       0.160300
     22 N23          0.9470     0.9730    -7.2750 n3         1 9FV      -0.721600
     23 C24          2.1900     1.6690    -6.9150 c3         1 9FV       0.160300
     24 C25          2.3910     1.6020    -5.3990 c3         1 9FV      -0.070900
     25 C26          0.6490     1.1340    -8.7040 cy         1 9FV       0.102500
     26 C27          0.4500     2.5990    -9.1370 cy         1 9FV       0.091900
     27 O28          1.2550     2.2520   -10.2820 oq         1 9FV      -0.410600
     28 C29          1.9010     1.1570    -9.6020 cy         1 9FV       0.091900
     29 H1          -0.5360     0.0050    -0.9410 h4         1 9FV       0.033100
     30 H2           0.5310     0.1920    -2.8010 ha         1 9FV       0.157000
     31 H3           3.1550     0.0020     1.2550 ha         1 9FV       0.172000
     32 H4           6.8740     1.0800    -3.3990 hc         1 9FV       0.050533
     33 H5           6.1520     0.9090    -1.7930 hc         1 9FV       0.050533
     34 H6           5.3940     1.9610    -2.9960 hc         1 9FV       0.050533
     35 H7           5.0800    -2.2700    -3.1800 hc         1 9FV       0.050533
     36 H8           6.6750    -1.5810    -3.5130 hc         1 9FV       0.050533
     37 H9           5.9680    -1.4360    -1.8970 hc         1 9FV       0.050533
     38 H10          5.0240    -0.0750    -4.4400 h1         1 9FV       0.065700
     39 H11         -1.1030    -0.8880     3.8750 hn         1 9FV       0.445800
     40 H12         -1.1100     0.8460     3.8870 hn         1 9FV       0.445800
     41 H13          3.3110    -0.3400    -5.4320 hc         1 9FV       0.052700
     42 H14          1.2370    -1.6250    -5.1250 hc         1 9FV       0.058200
     43 H15          0.3260    -0.1220    -4.8960 hc         1 9FV       0.058200
     44 H16          1.8530    -0.9110    -7.4030 h1         1 9FV       0.038450
     45 H17          0.0910    -0.9370    -7.2120 h1         1 9FV       0.038450
     46 H19          2.1240     2.7050    -7.2240 h1         1 9FV       0.038450
     47 H20          3.0260     1.1910    -7.4100 h1         1 9FV       0.038450
     48 H21          1.5590     2.0880    -4.9040 hc         1 9FV       0.058200
     49 H22          3.3160     2.1010    -5.1360 hc         1 9FV       0.058200
     50 H23         -0.1250     0.4760    -9.0800 h1         1 9FV       0.092700
     51 H24          0.9320     3.3090    -8.4760 h1         1 9FV       0.063700
     52 H25         -0.5760     2.8340    -9.3910 h1         1 9FV       0.063700
     53 H26          2.8000     1.4530    -9.0750 h1         1 9FV       0.063700
     54 H27          2.0020     0.2720   -10.2190 h1         1 9FV       0.063700
     55 C2           5.0970    -0.1290    -3.3610 c3         1 9FV       0.076000
@<TRIPOS>BOND
     1    28    25 1
     2    28    27 1
     3    23    24 1
     4    23    22 1
     5    10    55 1
     6    25    22 1
     7    25    26 1
     8    24    19 1
     9    27    26 1
    10    22    21 1
    11    19     2 1
    12    19    20 1
    13    55    11 1
    14    55     9 1
    15    21    20 1
    16     2    11 1
    17     2     3 2
    18    11    12 1
    19     3     5 1
    20    12     5 2
    21     5     6 1
    22     6     1 ar
    23     6     7 ar
    24     1    13 ar
    25     7     4 ar
    26    13     8 ar
    27     4     8 ar
    28     4    15 1
    29     8    14 1
    30    16    15 1
    31    17    15 1
    32    15    18 1
    33     1    29 1
    34     3    30 1
    35     7    31 1
    36     9    32 1
    37     9    33 1
    38     9    34 1
    39    10    35 1
    40    10    36 1
    41    10    37 1
    42    55    38 1
    43    14    39 1
    44    14    40 1
    45    19    41 1
    46    20    42 1
    47    20    43 1
    48    21    44 1
    49    21    45 1
    50    23    46 1
    51    23    47 1
    52    24    48 1
    53    24    49 1
    54    25    50 1
    55    26    51 1
    56    26    52 1
    57    28    53 1
    58    28    54 1
@<TRIPOS>SUBSTRUCTURE
     1 9FV         1 TEMP              0 ****  ****    0 ROOT
