@<TRIPOS>MOLECULE
molecule
   28    28     1     0     0
SMALL
bcc


@<TRIPOS>ATOM
      1 C7           0.0000     0.0000     0.0000 cc         1 9FZ       0.283600
      2 C2           3.1110     0.0000     1.7930 c3         1 9FZ       0.069300
      3 N            4.8090     3.6210     3.4660 nz         1 9FZ      -0.802600
      4 CA           4.9550     2.3630     4.2100 c3         1 9FZ       0.043500
      5 C            6.3340     2.2930     4.8120 c          1 9FZ       0.864600
      6 O            6.5760     1.4660     5.8420 o          1 9FZ      -0.765300
      7 CB           4.7520     1.1810     3.2590 c3         1 9FZ      -0.244400
      8 C1           3.3120     1.1810     2.7440 c3         1 9FZ      -0.081400
      9 C8           1.3550     0.0000     0.0000 cd         1 9FZ      -0.294600
     10 C9          -0.9020    -0.0060    -1.2070 c3         1 9FZ      -0.106400
     11 N4           1.7310     0.0000     1.3000 na         1 9FZ       0.117400
     12 N5           0.6700     0.0000     2.0270 nd         1 9FZ      -0.210800
     13 N6          -0.3790    -0.0000     1.2820 nc         1 9FZ      -0.358000
     14 H1           3.3060    -0.9250     2.3210 h1         1 9FZ       0.080200
     15 H2           3.7930     0.0900     0.9560 h1         1 9FZ       0.080200
     16 H6           4.2140     2.3220     5.0000 hx         1 9FZ       0.085700
     17 H8           4.2140     1.2230     4.1980 hc         1 9FZ       0.130700
     18 H9           5.3120     0.2580     3.3510 hc         1 9FZ       0.130700
     19 H10          3.1180     2.1070     2.2160 hc         1 9FZ       0.043700
     20 H11          2.6290     1.0920     3.5800 hc         1 9FZ       0.043700
     21 H12          1.9910     0.2240    -0.8470 h4         1 9FZ       0.181000
     22 H13         -0.6410    -0.8390    -1.8490 hc         1 9FZ       0.051700
     23 H14         -0.7800     0.9220    -1.7530 hc         1 9FZ       0.051700
     24 H15         -1.9320    -0.1040    -0.8880 hc         1 9FZ       0.051700
     25 OXT          7.2230     2.9820     4.3680 o          1 9FZ      -0.765300
     26 H4           5.2830     4.3540     3.9540 hn         1 9FZ       0.440467
     27 H21          5.2060     3.5160     2.5530 hn         1 9FZ       0.440467
     28 H3           3.8380     3.8480     3.3830 hn         1 9FZ       0.440467
@<TRIPOS>BOND
     1    10     1 1
     2     5     6 1
     3     5     4 1
     4     1    13 1
     5     1     9 2
     6    13    12 2
     7     9    11 1
     8     4     3 1
     9     4     7 1
    10     8     7 1
    11     8     2 1
    12    12    11 1
    13    11     2 1
    14     2    14 1
    15     2    15 1
    16     3    28 1
    17     3    26 1
    18     4    16 1
    19     7    17 1
    20     7    18 1
    21     8    19 1
    22     8    20 1
    23     9    21 1
    24    10    22 1
    25    10    23 1
    26    10    24 1
    27     5    25 1
    28    27     3 1
@<TRIPOS>SUBSTRUCTURE
     1 9FZ         1 TEMP              0 ****  ****    0 ROOT
