@<TRIPOS>MOLECULE
molecule
   47    49     1     0     0
SMALL
bcc


@<TRIPOS>ATOM
      1 Cl           0.0000     0.0000     0.0000 cl         1 9G4      -0.071400
      2 C17          1.7360     0.0000     0.0000 ca         1 9G4       0.008400
      3 C16          2.4270     0.0000     1.1990 ca         1 9G4      -0.082000
      4 C15          3.8080    -0.0010     1.2010 ca         1 9G4      -0.171500
      5 C18          2.4270    -0.0080    -1.1990 ca         1 9G4      -0.082000
      6 C19          3.8080    -0.0100    -1.2010 ca         1 9G4      -0.171500
      7 C14          4.5030    -0.0030     0.0000 ca         1 9G4       0.121100
      8 O3           5.8620    -0.0030    -0.0000 os         1 9G4      -0.218200
      9 C11          6.4980     0.1150     1.1890 cc         1 9G4       0.084500
     10 C10          7.2030    -0.9430     1.7360 cd         1 9G4      -0.198200
     11 C9           7.8350    -0.7380     2.9730 c          1 9G4       0.642700
     12 O1           8.4680    -1.6450     3.4910 o          1 9G4      -0.536500
     13 C12          6.4690     1.3710     1.9460 cc         1 9G4       0.200600
     14 C13          5.7390     2.5430     1.4200 c          1 9G4       0.445800
     15 N3           5.7180     3.6940     2.1200 nz         1 9G4      -0.672400
     16 O2           5.1580     2.4680     0.3550 o          1 9G4      -0.385100
     17 N2           7.1000     1.4450     3.0970 nd         1 9G4      -0.419300
     18 N1           7.7450     0.4520     3.5910 n          1 9G4       0.011000
     19 C6           8.3870     0.6170     4.8220 ca         1 9G4      -0.019400
     20 C5           9.2000     1.7220     5.0410 ca         1 9G4      -0.096500
     21 C4           9.8330     1.8820     6.2580 ca         1 9G4      -0.102500
     22 C7           8.2090    -0.3210     5.8320 ca         1 9G4      -0.096500
     23 C8           8.8440    -0.1550     7.0460 ca         1 9G4      -0.102500
     24 C3           9.6570     0.9440     7.2580 ca         1 9G4      -0.074300
     25 C2          10.3480     1.1210     8.5860 c3         1 9G4       0.153300
     26 N            9.4840     1.8870     9.4880 ns         1 9G4      -0.599900
     27 C1           9.8990     2.1690    10.7390 c          1 9G4       0.656100
     28 O           10.9860     1.7900    11.1180 o          1 9G4      -0.589100
     29 C            9.0100     2.9560    11.6670 c3         1 9G4      -0.169100
     30 H16          1.8840     0.0020     2.1360 ha         1 9G4       0.160500
     31 H18          1.8850    -0.0130    -2.1370 ha         1 9G4       0.160500
     32 H15          4.3480     0.0020     2.1400 ha         1 9G4       0.145500
     33 H19          4.3490    -0.0140    -2.1400 ha         1 9G4       0.145500
     34 H10          7.4910    -1.7820     1.1140 ha         1 9G4       0.217000
     35 H31N         5.1380     4.3600     1.6480 hn         1 9G4       0.481467
     36 H32N         6.6480     4.0550     2.1970 hn         1 9G4       0.481467
     37 H5           9.3380     2.4570     4.2570 ha         1 9G4       0.146500
     38 H7           7.5720    -1.1820     5.6660 ha         1 9G4       0.146500
     39 H4          10.4690     2.7420     6.4280 ha         1 9G4       0.160000
     40 H8           8.7070    -0.8870     7.8330 ha         1 9G4       0.160000
     41 H21C        10.5520     0.1490     9.0190 h1         1 9G4       0.072200
     42 H22C        11.2800     1.6540     8.4400 h1         1 9G4       0.072200
     43 H            8.5970     2.2210     9.1680 hn         1 9G4       0.310500
     44 HC1          9.5020     3.0730    12.6250 hc         1 9G4       0.064700
     45 HC2          8.8140     3.9310    11.2390 hc         1 9G4       0.064700
     46 HC3          8.0740     2.4280    11.8050 hc         1 9G4       0.064700
     47 H33          5.3410     3.5230     3.0310 hn         1 9G4       0.481467
@<TRIPOS>BOND
     1     1     2 1
     2     2     3 ar
     3     2     5 ar
     4     3     4 ar
     5     4     7 ar
     6     5     6 ar
     7     6     7 ar
     8     7     8 1
     9     8     9 1
    10     9    10 2
    11     9    13 1
    12    10    11 1
    13    11    12 2
    14    11    18 1
    15    13    14 1
    16    13    17 2
    17    14    15 1
    18    14    16 2
    19    17    18 1
    20    18    19 1
    21    19    20 ar
    22    19    22 ar
    23    20    21 ar
    24    21    24 ar
    25    22    23 ar
    26    23    24 ar
    27    24    25 1
    28    25    26 1
    29    26    27 1
    30    27    28 2
    31    27    29 1
    32     3    30 1
    33     5    31 1
    34     4    32 1
    35     6    33 1
    36    10    34 1
    37    15    35 1
    38    15    36 1
    39    20    37 1
    40    22    38 1
    41    21    39 1
    42    23    40 1
    43    25    41 1
    44    25    42 1
    45    26    43 1
    46    29    44 1
    47    29    45 1
    48    29    46 1
    49    47    15 1
@<TRIPOS>SUBSTRUCTURE
     1 9G4         1 TEMP              0 ****  ****    0 ROOT
