@<TRIPOS>MOLECULE
9G7
   84    87     1     0     0
SMALL
bcc


@<TRIPOS>ATOM
      1 C10          0.0000     0.0000     0.0000 ca         1 9G7       0.118900
      2 C13          0.0040    -0.0100     2.3950 ca         1 9G7      -0.077000
      3 C15          2.0860     0.0000     1.2100 ca         1 9G7      -0.056300
      4 C20          4.1110    -3.5150     2.7040 c3         1 9G7       0.062000
      5 C22          3.9650    -5.9310     2.9740 c          1 9G7       0.677100
      6 C26          4.0990     1.3730     1.6650 c3         1 9G7      -0.086700
      7 C28          3.6400     1.6480     3.1000 c3         1 9G7      -0.062400
      8 C01          5.0860    -2.8280    -3.2680 c3         1 9G7       0.007900
      9 C03          3.2260    -1.2010    -3.0550 ca         1 9G7      -0.093300
     10 C04          3.5320    -0.0030    -3.6760 ca         1 9G7      -0.100000
     11 C05          3.1460     1.1950    -3.1050 ca         1 9G7      -0.091000
     12 C06          2.4520     1.2020    -1.9110 ca         1 9G7      -0.097000
     13 C07          2.1410    -0.0010    -1.2820 cp         1 9G7      -0.007000
     14 C08          2.5280    -1.2070    -1.8650 ca         1 9G7      -0.067000
     15 C09          1.3960     0.0000     0.0000 cp         1 9G7      -0.033000
     16 F11         -0.6770    -0.0000    -1.1700 f          1 9G7      -0.122900
     17 C12         -0.6880    -0.0050     1.1980 ca         1 9G7      -0.134000
     18 C14          1.3870    -0.0100     2.4020 ca         1 9G7      -0.135000
     19 C16          3.5930    -0.0000     1.2200 c3         1 9G7       0.229100
     20 O17          4.0770    -0.2830    -0.0940 oh         1 9G7      -0.561800
     21 C18          4.0960    -1.0690     2.1910 c3         1 9G7      -0.063400
     22 C19          3.6060    -2.4440     1.7330 c3         1 9G7      -0.052400
     23 N21          3.6400    -4.8310     2.2660 ns         1 9G7      -0.176900
     24 O23          4.6470    -5.8310     3.9750 o          1 9G7      -0.661000
     25 O24          3.5340    -7.1420     2.5710 os         1 9G7      -0.429900
     26 C25          3.9210    -8.2830     3.3820 c3         1 9G7       0.287700
     27 C29          4.1750     3.0060     3.5580 c3         1 9G7      -0.035400
     28 C30          3.6110     4.1040     2.6500 c3         1 9G7       0.040000
     29 N31          3.9240     3.7720     1.2540 n          1 9G7      -0.155800
     30 C32          3.5350     2.4530     0.7380 c3         1 9G7       0.030000
     31 C33          4.5570     4.6610     0.4620 c          1 9G7       0.590100
     32 O34          4.8100     4.3740    -0.6890 o          1 9G7      -0.649100
     33 C35          4.9500     6.0100     1.0070 c3         1 9G7      -0.099400
     34 C36          5.6470     6.8180    -0.0890 c3         1 9G7      -0.034700
     35 C37          5.9360     8.2320     0.4240 c3         1 9G7      -0.035400
     36 C38          6.6870     9.0170    -0.6540 c3         1 9G7       0.150800
     37 N39          7.9440     8.3280    -0.9760 n7         1 9G7      -0.584200
     38 C40          7.6910     6.9860    -1.5150 c3         1 9G7       0.150800
     39 C41          6.9690     6.1400    -0.4630 c3         1 9G7      -0.035400
     40 H1          -0.5390    -0.0160     3.3330 ha         1 9G7       0.108000
     41 H2           3.7320    -3.3080     3.6980 h1         1 9G7       0.025200
     42 H3           5.1940    -3.5050     2.7210 h1         1 9G7       0.025200
     43 H4           5.1820     1.3940     1.6240 hc         1 9G7       0.041700
     44 H5           2.5570     1.6570     3.1350 hc         1 9G7       0.035700
     45 H6           4.0210     0.8720     3.7540 hc         1 9G7       0.035700
     46 H7           5.6640    -1.9130    -3.2230 hc         1 9G7       0.001367
     47 H8           5.5220    -3.4950    -4.0010 hc         1 9G7       0.001367
     48 H9           5.0910    -3.3060    -2.2960 hc         1 9G7       0.001367
     49 H10          2.9910    -3.2960    -3.3530 hc         1 9G7       0.015200
     50 H11          3.5980    -2.4170    -4.7630 hc         1 9G7       0.015200
     51 H12          4.0760    -0.0030    -4.6120 ha         1 9G7       0.104000
     52 H13          3.3880     2.1310    -3.5950 ha         1 9G7       0.108000
     53 H14          2.1520     2.1420    -1.4640 ha         1 9G7       0.113000
     54 H15          2.2890    -2.1460    -1.3800 ha         1 9G7       0.104000
     55 H16         -1.7720    -0.0050     1.2000 ha         1 9G7       0.121000
     56 H17          1.9230    -0.0120     3.3430 ha         1 9G7       0.126000
     57 H18          5.0180    -0.3480    -0.0760 ho         1 9G7       0.389000
     58 H19          3.7170    -0.8630     3.1840 hc         1 9G7       0.031200
     59 H20          5.1800    -1.0600     2.2080 hc         1 9G7       0.031200
     60 H21          2.5230    -2.4540     1.7160 hc         1 9G7       0.032200
     61 H22          3.9850    -2.6510     0.7400 hc         1 9G7       0.032200
     62 H23          3.0490    -4.9100     1.4620 hn         1 9G7       0.177500
     63 H24          5.0010    -8.3540     3.4130 h1         1 9G7      -0.000300
     64 H25          3.5120    -9.1880     2.9500 h1         1 9G7      -0.000300
     65 H26          3.5380    -8.1580     4.3880 h1         1 9G7      -0.000300
     66 H27          3.8670     3.1890     4.5800 hc         1 9G7       0.022200
     67 H28          5.2570     3.0080     3.4950 hc         1 9G7       0.022200
     68 H29          4.0640     5.0540     2.9070 h1         1 9G7       0.026200
     69 H30          2.5370     4.1620     2.7770 h1         1 9G7       0.026200
     70 H31          3.9380     2.3210    -0.2590 h1         1 9G7       0.056200
     71 H32          2.4550     2.3790     0.7110 h1         1 9G7       0.056200
     72 H33          5.6250     5.8780     1.8440 hc         1 9G7       0.032200
     73 H34          4.0640     6.5380     1.3370 hc         1 9G7       0.032200
     74 H35          5.0110     6.8750    -0.9640 hc         1 9G7       0.043700
     75 H36          6.5450     8.1740     1.3180 hc         1 9G7       0.026950
     76 H37          5.0010     8.7310     0.6490 hc         1 9G7       0.026950
     77 H38          6.9060    10.0120    -0.2870 h1         1 9G7       0.004700
     78 H39          6.0740     9.0820    -1.5450 h1         1 9G7       0.004700
     79 H40          8.4570     8.8650    -1.6460 hn         1 9G7       0.248800
     80 H42          8.6340     6.5170    -1.7680 h1         1 9G7       0.004700
     81 H43          7.0710     7.0650    -2.4000 h1         1 9G7       0.004700
     82 H44          7.5920     6.0540     0.4200 hc         1 9G7       0.026950
     83 H45          6.7670     5.1560    -0.8680 hc         1 9G7       0.026950
     84 C02          3.6500    -2.5030    -3.6840 c3         1 9G7       0.031900
@<TRIPOS>BOND
     1     1    15 ar  
     2     1    16 1   
     3     1    17 ar  
     4     2    17 ar  
     5     2    18 ar  
     6     2    40 1   
     7     3    15 ar  
     8     3    18 ar  
     9     3    19 1   
    10     4    22 1   
    11     4    23 1   
    12     4    41 1   
    13     4    42 1   
    14     5    23 1   
    15     5    24 2   
    16     5    25 1   
    17     6     7 1   
    18     6    19 1   
    19     6    30 1   
    20     6    43 1   
    21     7    27 1   
    22     7    44 1   
    23     7    45 1   
    24     8    46 1   
    25     8    47 1   
    26     8    48 1   
    27     8    84 1   
    28     9    10 ar  
    29     9    14 ar  
    30     9    84 1   
    31    10    11 ar  
    32    10    51 1   
    33    11    12 ar  
    34    11    52 1   
    35    12    13 ar  
    36    12    53 1   
    37    13    14 ar  
    38    13    15 1   
    39    14    54 1   
    40    17    55 1   
    41    18    56 1   
    42    19    20 1   
    43    19    21 1   
    44    20    57 1   
    45    21    22 1   
    46    21    58 1   
    47    21    59 1   
    48    22    60 1   
    49    22    61 1   
    50    23    62 1   
    51    25    26 1   
    52    26    63 1   
    53    26    64 1   
    54    26    65 1   
    55    27    28 1   
    56    27    66 1   
    57    27    67 1   
    58    28    29 1   
    59    28    68 1   
    60    28    69 1   
    61    29    30 1   
    62    29    31 1   
    63    30    70 1   
    64    30    71 1   
    65    31    32 2   
    66    31    33 1   
    67    33    34 1   
    68    33    72 1   
    69    33    73 1   
    70    34    35 1   
    71    34    39 1   
    72    34    74 1   
    73    35    36 1   
    74    35    75 1   
    75    35    76 1   
    76    36    37 1   
    77    36    77 1   
    78    36    78 1   
    79    37    38 1   
    80    37    79 1   
    81    38    39 1   
    82    38    80 1   
    83    38    81 1   
    84    39    82 1   
    85    39    83 1   
    86    49    84 1   
    87    50    84 1   
@<TRIPOS>SUBSTRUCTURE
     1 9G7         1 TEMP              0 ****  ****    0 ROOT
