@<TRIPOS>MOLECULE
molecule
   57    60     1     0     0
SMALL
bcc


@<TRIPOS>ATOM
      1 N3           0.0000     0.0000     0.0000 nc         1 9GA      -0.757000
      2 C4           1.3080     0.0000     0.0000 cd         1 9GA       0.504400
      3 C7           3.0440     0.0000     1.7330 cd         1 9GA       0.603800
      4 C10          6.5250    -0.2980     0.6020 cd         1 9GA      -0.396800
      5 N12          7.0020    -0.0290     2.7400 nc         1 9GA      -0.566100
      6 C15          3.3210     0.1740     3.1010 cd         1 9GA      -0.251600
      7 C17          6.7000    -0.4990    -0.8380 c          1 9GA       0.714300
      8 C20          8.1130    -0.8230    -2.7960 c3         1 9GA       0.191000
      9 C22          9.4750    -0.3300    -3.2120 ca         1 9GA      -0.114300
     10 C24         10.8750     0.8080    -4.7850 ca         1 9GA      -0.169000
     11 C2          -0.4520    -0.0000     1.2550 cc         1 9GA       0.594300
     12 N5           1.7250     0.0000     1.2830 na         1 9GA      -0.106200
     13 N6           0.5650    -0.0000     2.0740 nd         1 9GA      -0.554800
     14 N8           4.0360    -0.1570     0.8750 nc         1 9GA      -0.693000
     15 C9           5.3020    -0.1540     1.2870 cc         1 9GA       0.481500
     16 C11          7.5470    -0.2100     1.5660 cd         1 9GA       0.444500
     17 N13          5.6090     0.0120     2.6080 na         1 9GA       0.039200
     18 C14          4.6090     0.1710     3.5230 cc         1 9GA       0.020700
     19 C16          2.1970     0.3610     4.0880 c3         1 9GA      -0.025800
     20 O18          5.7270    -0.5580    -1.5660 o          1 9GA      -0.614100
     21 N19          7.9380    -0.6210    -1.3560 ns         1 9GA      -0.573900
     22 C23          9.6270     0.3540    -4.4030 ca         1 9GA      -0.078000
     23 C25         11.9750     0.5770    -3.9720 ca         1 9GA       0.126100
     24 O26         13.2040     1.0220    -4.3460 os         1 9GA      -0.340900
     25 C27         14.2910     0.7480    -3.4600 c3         1 9GA       0.795700
     26 F28         15.4720     1.2730    -3.9950 f          1 9GA      -0.204967
     27 F29         14.0390     1.3380    -2.2170 f          1 9GA      -0.204967
     28 F30         14.4250    -0.6350    -3.3020 f          1 9GA      -0.204967
     29 C31         11.8180    -0.1010    -2.7720 ca         1 9GA      -0.169000
     30 C32         10.5690    -0.5570    -2.3970 ca         1 9GA      -0.078000
     31 C33          7.9900    -2.3140    -3.1210 c3         1 9GA       0.136800
     32 C34          6.6070    -2.8150    -2.7000 c3         1 9GA      -0.120600
     33 C35          8.1720    -2.5250    -4.6250 c3         1 9GA      -0.120600
     34 O36          8.9960    -3.0400    -2.4130 oh         1 9GA      -0.609800
     35 H1           1.9440     0.0000    -0.8770 h5         1 9GA       0.102100
     36 H2           7.3500    -0.2730    -3.3330 h1         1 9GA       0.091700
     37 H3          10.9930     1.3440    -5.7190 ha         1 9GA       0.149500
     38 H4          -2.4400    -0.7420     1.0810 hc         1 9GA       0.061700
     39 H5          -1.9830    -0.2410     2.7150 hc         1 9GA       0.061700
     40 H6          -2.3300     0.9780     1.4810 hc         1 9GA       0.061700
     41 H7           8.6090    -0.2800     1.3680 h4         1 9GA       0.064800
     42 H8           4.8420     0.3040     4.5730 h4         1 9GA       0.188000
     43 H9           1.5980     1.2150     3.7960 hc         1 9GA       0.059033
     44 H10          1.5780    -0.5280     4.1020 hc         1 9GA       0.059033
     45 H11          2.6080     0.5290     5.0760 hc         1 9GA       0.059033
     46 H12          8.7390    -0.5290    -0.7630 hn         1 9GA       0.316500
     47 H13          8.7680     0.5340    -5.0370 ha         1 9GA       0.143500
     48 H14         12.6750    -0.2810    -2.1340 ha         1 9GA       0.149500
     49 H15         10.4450    -1.0870    -1.4600 ha         1 9GA       0.143500
     50 H16          6.5510    -2.8540    -1.6190 hc         1 9GA       0.047867
     51 H17          6.4430    -3.8060    -3.1060 hc         1 9GA       0.047867
     52 H18          5.8480    -2.1400    -3.0760 hc         1 9GA       0.047867
     53 H19          7.6320    -1.7570    -5.1660 hc         1 9GA       0.047867
     54 H20          7.7880    -3.4990    -4.9020 hc         1 9GA       0.047867
     55 H21          9.2250    -2.4680    -4.8730 hc         1 9GA       0.047867
     56 H22          8.8850    -3.9640    -2.5680 ho         1 9GA       0.406000
     57 C1          -1.9030    -0.0010     1.6610 c3         1 9GA      -0.100400
@<TRIPOS>BOND
     1    27    25 1
     2    24    25 1
     3    24    23 1
     4    25    28 1
     5    25    26 1
     6    29    23 ar
     7    29    30 ar
     8    23    10 ar
     9    33    31 1
    10    30     9 ar
    11    10    22 ar
    12     9    22 ar
    13     9     8 1
    14    31    34 1
    15    31     8 1
    16    31    32 1
    17     8    21 1
    18     1     2 2
    19     1    11 1
    20     2    12 1
    21    21     7 1
    22    57    11 1
    23    11    13 2
    24    20     7 2
    25     7     4 1
    26    12    13 1
    27    12     3 1
    28    14     3 2
    29    14    15 1
    30     3     6 1
    31     4    15 2
    32     4    16 1
    33    15    17 1
    34    16     5 2
    35     6    19 1
    36     6    18 2
    37    17    18 1
    38    17     5 1
    39     2    35 1
    40     8    36 1
    41    10    37 1
    42    57    38 1
    43    57    39 1
    44    57    40 1
    45    16    41 1
    46    18    42 1
    47    19    43 1
    48    19    44 1
    49    19    45 1
    50    21    46 1
    51    22    47 1
    52    29    48 1
    53    30    49 1
    54    32    50 1
    55    32    51 1
    56    32    52 1
    57    33    53 1
    58    33    54 1
    59    33    55 1
    60    34    56 1
@<TRIPOS>SUBSTRUCTURE
     1 9GA         1 TEMP              0 ****  ****    0 ROOT
