@<TRIPOS>MOLECULE
molecule
   25    24     1     0     0
SMALL
bcc


@<TRIPOS>ATOM
      1 C2           0.0000     0.0000     0.0000 c2         1 9GB      -0.502200
      2 C4           0.0980     0.0020     2.4390 c3         1 9GB      -0.113900
      3 C5          -2.1630     0.0010     1.1330 c3         1 9GB      -0.024200
      4 C6          -2.6720    -1.4360     1.2600 c3         1 9GB      -0.075400
      5 O3A          4.2160     0.0650    -1.5580 o          1 9GB      -0.894500
      6 PA           3.5490    -1.2140    -1.2240 p5         1 9GB       1.157900
      7 O1A          3.7180    -2.2440    -2.4500 o          1 9GB      -0.894500
      8 O2A          4.2200    -1.8400     0.0990 o          1 9GB      -0.894500
      9 O1           1.9840    -0.9480    -0.9570 os         1 9GB      -0.518200
     10 C1           1.5070     0.0000     0.0000 c3         1 9GB       0.225600
     11 C3          -0.6550     0.0000     1.1340 c2         1 9GB      -0.066400
     12 C7          -4.2020    -1.4360     1.2600 c3         1 9GB      -0.093100
     13 H1           0.6110     0.8750     0.1840 ha         1 9GB       0.364000
     14 H2          -0.6030     0.0930     3.2600 hc         1 9GB       0.034033
     15 H3           0.7860     0.8380     2.4580 hc         1 9GB       0.034033
     16 H4           0.6510    -0.9240     2.5380 hc         1 9GB       0.034033
     17 H5          -2.5230     0.4320     0.2070 hc         1 9GB       0.028700
     18 H6          -2.5240     0.5870     1.9700 hc         1 9GB       0.028700
     19 H7          -2.3110    -1.8670     2.1860 hc         1 9GB       0.052700
     20 H8          -2.3110    -2.0220     0.4240 hc         1 9GB       0.052700
     21 H11          1.8690    -0.2690     0.9850 h1         1 9GB       0.004700
     22 H12          1.8690     0.9880    -0.2600 h1         1 9GB       0.004700
     23 H13         -4.5640    -0.8450     2.0930 hc         1 9GB       0.018033
     24 H14         -4.5630    -2.4530     1.3560 hc         1 9GB       0.018033
     25 H15         -4.5640    -1.0110     0.3320 hc         1 9GB       0.018033
@<TRIPOS>BOND
     1     4     3 1
     2     4    12 1
     3     3    11 1
     4    11     2 1
     5    11     1 2
     6     1    10 1
     7     9    10 1
     8     9     6 1
     9     5     6 1
    10     6     7 1
    11     6     8 1
    12     1    13 1
    13     2    14 1
    14     2    15 1
    15     2    16 1
    16     3    17 1
    17     3    18 1
    18     4    19 1
    19     4    20 1
    20    10    21 1
    21    10    22 1
    22    12    23 1
    23    12    24 1
    24    12    25 1
@<TRIPOS>SUBSTRUCTURE
     1 9GB         1 TEMP              0 ****  ****    0 ROOT
