@<TRIPOS>MOLECULE
9GD
   83    87     1     0     0
SMALL
bcc


@<TRIPOS>ATOM
      1 CAK          0.0000     0.0000     0.0000 c3         1 9GD      -0.031400
      2 CAL          1.5310     0.0000     0.0000 c3         1 9GD       0.148800
      3 NAM          2.0220     0.0000     1.3840 n7         1 9GD      -0.581200
      4 CAN          1.5880     1.2060     2.1010 c3         1 9GD       0.148800
      5 CAO          0.0590     1.2420     2.1630 c3         1 9GD      -0.031400
      6 CAJ         -0.5050     1.2410     0.7410 c3         1 9GD      -0.083700
      7 CAI         -2.0340     1.2150     0.7960 c3         1 9GD       0.223800
      8 NAH         -2.5240     2.4790     1.3520 n3         1 9GD      -0.504500
      9 CAA         -2.2840     3.7350     0.6370 c3         1 9GD       0.301100
     10 CAB         -3.3620     3.9380    -0.3970 ca         1 9GD      -0.143300
     11 CAC         -4.5150     4.6170    -0.0590 ca         1 9GD      -0.132000
     12 CAD         -5.5140     4.8070    -1.0080 ca         1 9GD       0.055600
     13 NBP         -6.6740     5.4890    -0.6720 nv         1 9GD      -0.519200
     14 CAE         -5.3410     4.3060    -2.3080 ca         1 9GD      -0.107600
     15 CBQ         -6.3900     4.5010    -3.3230 c          1 9GD       0.974200
     16 OBS         -7.3540     5.1980    -3.0740 o          1 9GD      -0.885800
     17 OBR         -6.2820     3.9070    -4.5280 o          1 9GD      -0.885800
     18 CAF         -4.1660     3.6210    -2.6330 ca         1 9GD      -0.086000
     19 CAG         -3.1860     3.4470    -1.6810 ca         1 9GD      -0.158000
     20 SAP         -3.3480     2.4880     2.7870 sy         1 9GD       1.042200
     21 OAQ         -4.1670     3.6490     2.7730 o          1 9GD      -0.582300
     22 OAR         -3.8640     1.1760     2.9640 o          1 9GD      -0.582300
     23 CAS         -2.1630     2.7320     4.0690 ca         1 9GD      -0.109500
     24 CAX         -1.6140     1.6420     4.7180 ca         1 9GD      -0.026500
     25 CAW         -0.6840     1.8330     5.7230 ca         1 9GD      -0.035000
     26 CAT         -1.7780     4.0130     4.4200 ca         1 9GD      -0.026500
     27 CAU         -0.8470     4.2040     5.4240 ca         1 9GD      -0.035000
     28 CAV         -0.3020     3.1140     6.0770 ca         1 9GD      -0.122500
     29 SAY          0.8830     3.3580     7.3580 sy         1 9GD       1.049200
     30 OAZ          1.7180     2.2070     7.3570 o          1 9GD      -0.591800
     31 OBA          1.3810     4.6790     7.1980 o          1 9GD      -0.591800
     32 NBB          0.0620     3.3380     8.7960 n3         1 9GD      -0.516500
     33 CBE         -0.0810     2.0850     9.5410 c3         1 9GD       0.206500
     34 CBF         -1.5730     1.7960     9.8070 c3         1 9GD      -0.070900
     35 CBG         -1.5920     1.1740    11.2260 c3         1 9GD      -0.027400
     36 CBH         -0.5100     1.9920    11.9720 c3         1 9GD      -0.027400
     37 CBI          0.5940     2.2100    10.9170 c3         1 9GD      -0.070900
     38 CBC         -0.5220     4.5750     9.3240 c3         1 9GD       0.291100
     39 CBD          0.4430     5.2120    10.2890 ca         1 9GD      -0.122300
     40 CBJ          0.2890     5.0170    11.6490 ca         1 9GD      -0.091000
     41 CBK          1.1730     5.6020    12.5370 ca         1 9GD      -0.105000
     42 CBL          2.2120     6.3840    12.0630 ca         1 9GD      -0.029600
     43 Cl           3.3230     7.1180    13.1770 cl         1 9GD      -0.039400
     44 CBM          2.3650     6.5790    10.7020 ca         1 9GD      -0.105000
     45 CBN          1.4840     5.9890     9.8170 ca         1 9GD      -0.091000
     46 H1          -0.3600    -0.8900     0.5010 hc         1 9GD       0.024200
     47 H2          -0.3600     0.0180    -1.0210 hc         1 9GD       0.024200
     48 H3           1.8910     0.8860    -0.5090 h1         1 9GD       0.003200
     49 H4           1.8900    -0.8860    -0.5090 h1         1 9GD       0.003200
     50 H5           3.0220    -0.0460     1.3830 hn         1 9GD       0.245800
     51 H7           1.9880     1.1900     3.1070 h1         1 9GD       0.003200
     52 H8           1.9470     2.0840     1.5780 h1         1 9GD       0.003200
     53 H9          -0.2600     2.1410     2.6770 hc         1 9GD       0.024200
     54 H10         -0.3000     0.3680     2.6940 hc         1 9GD       0.024200
     55 H11         -0.1720     2.1310     0.2210 hc         1 9GD       0.039700
     56 H12         -2.4290     1.0820    -0.2030 h1         1 9GD       0.040200
     57 H13         -2.3580     0.3940     1.4250 h1         1 9GD       0.040200
     58 H14         -1.3180     3.6930     0.1480 h1         1 9GD       0.011200
     59 H15         -2.2980     4.5590     1.3400 h1         1 9GD       0.011200
     60 H16         -4.6240     5.0390     0.9320 ha         1 9GD       0.122000
     61 H17         -6.6960     6.4890    -0.7110 hn         1 9GD       0.263300
     62 H18         -7.4750     4.9840    -0.3460 hn         1 9GD       0.263300
     63 H20         -4.0090     3.2630    -3.6430 ha         1 9GD       0.127000
     64 H21         -2.3140     3.1770    -2.2640 ha         1 9GD       0.097000
     65 H22         -1.9130     0.6390     4.4410 ha         1 9GD       0.133000
     66 H23         -0.2550     0.9790     6.2330 ha         1 9GD       0.124000
     67 H24         -2.2050     4.8660     3.9080 ha         1 9GD       0.133000
     68 H25         -0.5470     5.2070     5.7000 ha         1 9GD       0.124000
     69 H26          0.3600     1.2650     8.9870 h1         1 9GD       0.058700
     70 H27         -1.9570     1.0900     9.0800 hc         1 9GD       0.033450
     71 H28         -2.1450     2.7160     9.7900 hc         1 9GD       0.033450
     72 H29         -1.3200     0.1260    11.1870 hc         1 9GD       0.016700
     73 H30         -2.5620     1.3100    11.6900 hc         1 9GD       0.016700
     74 H31         -0.1230     1.4290    12.8120 hc         1 9GD       0.016700
     75 H32         -0.9140     2.9430    12.2980 hc         1 9GD       0.016700
     76 H33          1.0230     3.1990    11.0300 hc         1 9GD       0.033450
     77 H34          1.3610     1.4530    11.0230 hc         1 9GD       0.033450
     78 H35         -1.4480     4.3470     9.8370 h1         1 9GD       0.027700
     79 H36         -0.7200     5.2580     8.5070 h1         1 9GD       0.027700
     80 H37         -0.5240     4.4050    12.0200 ha         1 9GD       0.141500
     81 H38          1.0520     5.4480    13.6020 ha         1 9GD       0.114000
     82 H39          3.1800     7.1890    10.3310 ha         1 9GD       0.114000
     83 H40          1.6040     6.1420     8.7510 ha         1 9GD       0.141500
@<TRIPOS>BOND
     1     1     2 1   
     2     1     6 1   
     3     1    46 1   
     4     1    47 1   
     5     2     3 1   
     6     2    48 1   
     7     2    49 1   
     8     3     4 1   
     9     3    50 1   
    10     4     5 1   
    11     4    51 1   
    12     4    52 1   
    13     5     6 1   
    14     5    53 1   
    15     5    54 1   
    16     6     7 1   
    17     6    55 1   
    18     7     8 1   
    19     7    56 1   
    20     7    57 1   
    21     8     9 1   
    22     8    20 1   
    23     9    10 1   
    24     9    58 1   
    25     9    59 1   
    26    10    11 ar  
    27    10    19 ar  
    28    11    12 ar  
    29    11    60 1   
    30    12    13 1   
    31    12    14 ar  
    32    13    61 1   
    33    13    62 1   
    34    14    15 1   
    35    14    18 ar  
    36    15    16 1   
    37    15    17 1   
    38    18    19 ar  
    39    18    63 1   
    40    19    64 1   
    41    20    21 2   
    42    20    22 2   
    43    20    23 1   
    44    23    24 ar  
    45    23    26 ar  
    46    24    25 ar  
    47    24    65 1   
    48    25    28 ar  
    49    25    66 1   
    50    26    27 ar  
    51    26    67 1   
    52    27    28 ar  
    53    27    68 1   
    54    28    29 1   
    55    29    30 2   
    56    29    31 2   
    57    29    32 1   
    58    32    33 1   
    59    32    38 1   
    60    33    34 1   
    61    33    37 1   
    62    33    69 1   
    63    34    35 1   
    64    34    70 1   
    65    34    71 1   
    66    35    36 1   
    67    35    72 1   
    68    35    73 1   
    69    36    37 1   
    70    36    74 1   
    71    36    75 1   
    72    37    76 1   
    73    37    77 1   
    74    38    39 1   
    75    38    78 1   
    76    38    79 1   
    77    39    40 ar  
    78    39    45 ar  
    79    40    41 ar  
    80    40    80 1   
    81    41    42 ar  
    82    41    81 1   
    83    42    43 1   
    84    42    44 ar  
    85    44    45 ar  
    86    44    82 1   
    87    45    83 1   
@<TRIPOS>SUBSTRUCTURE
     1 9GD         1 TEMP              0 ****  ****    0 ROOT
