@<TRIPOS>MOLECULE
molecule
   44    43     1     0     0
SMALL
bcc


@<TRIPOS>ATOM
      1 C            0.0000     0.0000     0.0000 c          1 9GE       0.871800
      2 O            1.2150     0.0000     0.0000 o          1 9GE      -0.848800
      3 CA          -0.7340     0.0000     1.2730 ce         1 9GE      -0.179200
      4 C04         -0.0680     0.0010     2.4260 c2         1 9GE      -0.222200
      5 C05         -0.8220     0.0010     3.7300 c3         1 9GE      -0.042200
      6 C06         -0.3600    -1.1800     4.5860 c3         1 9GE      -0.076400
      7 O1          -0.6750     0.0050    -1.1670 o          1 9GE      -0.848800
      8 H1          -1.8170    -0.0010     1.2730 ha         1 9GE       0.098000
      9 H2           1.0150     0.0020     2.4260 ha         1 9GE       0.142000
     10 H3          -1.8840    -0.0890     3.5340 hc         1 9GE       0.028700
     11 H4          -0.6290     0.9270     4.2580 hc         1 9GE       0.028700
     12 H5           0.7020    -1.0910     4.7820 hc         1 9GE       0.042700
     13 H6          -0.5530    -2.1060     4.0580 hc         1 9GE       0.042700
     14 C1          -1.1240    -1.1800     5.9110 c3         1 9GE      -0.084400
     15 C2          -0.6620    -2.3610     6.7670 c3         1 9GE      -0.082400
     16 C3          -1.4270    -2.3610     8.0920 c3         1 9GE      -0.082400
     17 C4          -0.9650    -3.5420     8.9480 c3         1 9GE      -0.082400
     18 C5          -1.7290    -3.5410    10.2730 c3         1 9GE      -0.082400
     19 C6          -1.2670    -4.7230    11.1290 c3         1 9GE      -0.083400
     20 C7          -2.0320    -4.7220    12.4540 c3         1 9GE      -0.076400
     21 C8          -1.5700    -5.9040    13.3100 c3         1 9GE      -0.077700
     22 C9          -2.2410    -5.8330    14.6820 c3         1 9GE      -0.087600
     23 C10         -1.9550    -7.2140    12.6200 c3         1 9GE      -0.087600
     24 H7          -2.1860    -1.2690     5.7160 hc         1 9GE       0.035200
     25 H9          -0.9310    -0.2540     6.4390 hc         1 9GE       0.035200
     26 H10          0.3990    -2.2710     6.9630 hc         1 9GE       0.040200
     27 H11         -0.8550    -3.2870     6.2390 hc         1 9GE       0.040200
     28 H12         -2.4890    -2.4500     7.8960 hc         1 9GE       0.038200
     29 H13         -1.2340    -1.4350     8.6200 hc         1 9GE       0.038200
     30 H14          0.0970    -3.4540     9.1430 hc         1 9GE       0.040200
     31 H15         -1.1590    -4.4680     8.4200 hc         1 9GE       0.040200
     32 H16         -1.5350    -2.6160    10.8010 hc         1 9GE       0.039200
     33 H17         -2.7910    -3.6300    10.0780 hc         1 9GE       0.039200
     34 H18         -0.2050    -4.6340    11.3250 hc         1 9GE       0.041200
     35 H19         -1.4610    -5.6490    10.6010 hc         1 9GE       0.041200
     36 H20         -1.8390    -3.7960    12.9820 hc         1 9GE       0.040700
     37 H21         -3.0940    -4.8110    12.2580 hc         1 9GE       0.040700
     38 H22         -0.4950    -5.8630    13.4310 hc         1 9GE       0.048700
     39 H23         -1.9810    -4.8990    15.1640 hc         1 9GE       0.031867
     40 H24         -1.9020    -6.6610    15.2930 hc         1 9GE       0.031867
     41 H25         -3.3170    -5.8900    14.5620 hc         1 9GE       0.031867
     42 H26         -1.1920    -7.4820    11.9000 hc         1 9GE       0.031867
     43 H27         -2.0440    -8.0000    13.3610 hc         1 9GE       0.031867
     44 H28         -2.9040    -7.0900    12.1110 hc         1 9GE       0.031867
@<TRIPOS>BOND
     1     6     5 1
     2     5     4 1
     3     4     3 2
     4     3     1 1
     5     1     2 1
     6     1     7 1
     7     3     8 1
     8     4     9 1
     9     5    10 1
    10     5    11 1
    11     6    12 1
    12     6    13 1
    13     6    14 1
    14    14    15 1
    15    15    16 1
    16    16    17 1
    17    17    18 1
    18    18    19 1
    19    19    20 1
    20    20    21 1
    21    21    22 1
    22    21    23 1
    23    14    24 1
    24    14    25 1
    25    15    26 1
    26    15    27 1
    27    16    28 1
    28    16    29 1
    29    17    30 1
    30    17    31 1
    31    18    32 1
    32    18    33 1
    33    19    34 1
    34    19    35 1
    35    20    36 1
    36    20    37 1
    37    21    38 1
    38    22    39 1
    39    22    40 1
    40    22    41 1
    41    23    42 1
    42    23    43 1
    43    23    44 1
@<TRIPOS>SUBSTRUCTURE
     1 9GE         1 TEMP              0 ****  ****    0 ROOT
