@<TRIPOS>MOLECULE
9GH
   39    41     1     0     0
SMALL
bcc


@<TRIPOS>ATOM
      1 N1           0.0000     0.0000     0.0000 nc         1 9GH      -0.481100
      2 N3           2.0810    -0.0000    -1.1310 nh         1 9GH      -0.401600
      3 C4          -0.2470     0.0000     3.5750 ca         1 9GH      -0.151200
      4 C5          -1.6120     0.0000     3.8160 ca         1 9GH       0.160900
      5 C6          -2.5040     0.0010     2.7550 ca         1 9GH       0.153100
      6 C7           1.2920     0.0000     0.0000 cd         1 9GH       0.493100
      7 C8          -2.9840     0.0010     0.3230 c          1 9GH       0.983200
      8 C10          1.7470    -0.6380     6.4440 cc         1 9GH      -0.193500
      9 C13          1.4610    -0.0000    -2.4570 c3         1 9GH       0.166800
     10 C15          4.0490    -1.4420    -0.9600 c3         1 9GH      -0.023600
     11 C1          -2.0340     0.0010     1.4390 ca         1 9GH      -0.015600
     12 C2          -0.6290     0.0010     1.1790 ca         1 9GH       0.155400
     13 C3           0.2450    -0.0000     2.2660 ca         1 9GH      -0.049100
     14 S            1.8970     0.0000     1.6510 ss         1 9GH      -0.276100
     15 I           -2.3280    -0.0000     5.7850 i          1 9GH      -0.299900
     16 O1          -3.8390     0.0010     2.9960 oh         1 9GH      -0.459100
     17 O2          -3.4220    -1.1680    -0.1890 o          1 9GH      -0.867300
     18 O3          -3.3780     1.0540    -0.1390 o          1 9GH      -0.867300
     19 N2           0.6460     0.0010     4.6510 na         1 9GH       0.585800
     20 C9           0.7930    -1.0050     5.5640 cd         1 9GH      -0.325300
     21 C11          2.2060     0.6390     6.0630 cc         1 9GH      -0.193500
     22 C12          1.5200     1.0040     4.9610 cd         1 9GH      -0.325300
     23 C14          3.5400    -0.0000    -1.0040 c3         1 9GH       0.166800
     24 C16          1.2450     1.4420    -2.9200 c3         1 9GH      -0.023600
     25 H1           2.0950    -1.2180     7.2900 ha         1 9GH       0.113000
     26 H2           0.5070    -0.5110    -2.4100 h1         1 9GH       0.029450
     27 H3           2.1100    -0.5110    -3.1590 h1         1 9GH       0.029450
     28 H4           5.1180    -1.4540    -1.1360 hc         1 9GH       0.009200
     29 H5           3.8380    -1.8700     0.0130 hc         1 9GH       0.009200
     30 H6           3.5500    -2.0250    -1.7260 hc         1 9GH       0.009200
     31 H7          -4.0820     0.8050     3.4250 ho         1 9GH       0.395000
     32 H9           0.2400    -1.9370     5.5790 h4         1 9GH       0.147500
     33 H10          2.9740     1.2190     6.5610 ha         1 9GH       0.113000
     34 H11          1.6370     1.9340     4.4190 h4         1 9GH       0.147500
     35 H12          3.8240     0.5100    -0.0920 h1         1 9GH       0.029450
     36 H13          3.9760     0.5100    -1.8540 h1         1 9GH       0.029450
     37 H14          0.2990     1.5150    -3.4430 hc         1 9GH       0.009200
     38 H15          2.0490     1.7320    -3.5850 hc         1 9GH       0.009200
     39 H16          1.2330     2.0990    -2.0590 hc         1 9GH       0.009200
@<TRIPOS>BOND
     1     1     6 2   
     2     1    12 1   
     3     2     6 1   
     4     2     9 1   
     5     2    23 1   
     6     3     4 ar  
     7     3    13 ar  
     8     3    19 1   
     9     4     5 ar  
    10     4    15 1   
    11     5    11 ar  
    12     5    16 1   
    13     6    14 1   
    14     7    11 1   
    15     7    17 1   
    16     7    18 1   
    17     8    20 2   
    18     8    21 1   
    19     8    25 1   
    20     9    24 1   
    21     9    26 1   
    22     9    27 1   
    23    10    23 1   
    24    10    28 1   
    25    10    29 1   
    26    10    30 1   
    27    11    12 ar  
    28    12    13 ar  
    29    13    14 1   
    30    16    31 1   
    31    19    20 1   
    32    19    22 1   
    33    20    32 1   
    34    21    22 2   
    35    21    33 1   
    36    22    34 1   
    37    23    35 1   
    38    23    36 1   
    39    24    37 1   
    40    24    38 1   
    41    24    39 1   
@<TRIPOS>SUBSTRUCTURE
     1 9GH         1 TEMP              0 ****  ****    0 ROOT
