@<TRIPOS>MOLECULE
molecule
   39    41     1     0     0
SMALL
bcc


@<TRIPOS>ATOM
      1 N1           0.0000     0.0000     0.0000 nc         1 9GH      -0.614100
      2 N3           2.0810    -0.0000    -1.1310 nh         1 9GH      -0.769600
      3 C4          -0.2470     0.0000     3.5750 ca         1 9GH       0.031800
      4 C5          -1.6120     0.0000     3.8160 ca         1 9GH       0.012900
      5 C6          -2.5040     0.0010     2.7550 ca         1 9GH       0.139100
      6 C7           1.2920     0.0000     0.0000 cd         1 9GH       0.662100
      7 C8          -2.9840     0.0010     0.3230 c          1 9GH       0.897200
      8 C10          1.7470    -0.6380     6.4440 cd         1 9GH      -0.221500
      9 C13          1.4610    -0.0000    -2.4570 c3         1 9GH       0.238800
     10 C15          4.0490    -1.4420    -0.9600 c3         1 9GH      -0.118100
     11 C1          -2.0340     0.0010     1.4390 ca         1 9GH      -0.025600
     12 C2          -0.6290     0.0010     1.1790 ca         1 9GH       0.210400
     13 C3           0.2450    -0.0000     2.2660 ca         1 9GH      -0.080100
     14 S            1.8970     0.0000     1.6510 ss         1 9GH      -0.205100
     15 I           -2.3280    -0.0000     5.7850 i          1 9GH      -0.185900
     16 O1          -3.8390     0.0010     2.9960 oh         1 9GH      -0.479100
     17 O2          -3.4220    -1.1680    -0.1890 o          1 9GH      -0.815300
     18 O3          -3.3780     1.0540    -0.1390 o          1 9GH      -0.815300
     19 N2           0.6460     0.0010     4.6510 na         1 9GH       0.026800
     20 C9           0.7930    -1.0050     5.5640 cc         1 9GH      -0.139800
     21 C11          2.2060     0.6390     6.0630 cd         1 9GH      -0.221500
     22 C12          1.5200     1.0040     4.9610 cc         1 9GH      -0.139800
     23 C14          3.5400    -0.0000    -1.0040 c3         1 9GH       0.238800
     24 C16          1.2450     1.4420    -2.9200 c3         1 9GH      -0.118100
     25 H1           2.0950    -1.2180     7.2900 ha         1 9GH       0.135500
     26 H2           0.5070    -0.5110    -2.4100 h1         1 9GH       0.055450
     27 H3           2.1100    -0.5110    -3.1590 h1         1 9GH       0.055450
     28 H4           5.1180    -1.4540    -1.1360 hc         1 9GH       0.041033
     29 H5           3.8380    -1.8700     0.0130 hc         1 9GH       0.041033
     30 H6           3.5500    -2.0250    -1.7260 hc         1 9GH       0.041033
     31 H7          -4.0820     0.8050     3.4250 ho         1 9GH       0.414000
     32 H9           0.2400    -1.9370     5.5790 h4         1 9GH       0.168500
     33 H10          2.9740     1.2190     6.5610 ha         1 9GH       0.135500
     34 H11          1.6370     1.9340     4.4190 h4         1 9GH       0.168500
     35 H12          3.8240     0.5100    -0.0920 h1         1 9GH       0.055450
     36 H13          3.9760     0.5100    -1.8540 h1         1 9GH       0.055450
     37 H14          0.2990     1.5150    -3.4430 hc         1 9GH       0.041033
     38 H15          2.0490     1.7320    -3.5850 hc         1 9GH       0.041033
     39 H16          1.2330     2.0990    -2.0590 hc         1 9GH       0.041033
@<TRIPOS>BOND
     1    24     9 1
     2     9     2 1
     3    10    23 1
     4    23     2 1
     5     2     6 1
     6     6     1 2
     7     6    14 1
     8    18     7 1
     9     1    12 1
    10    14    13 1
    11     7    11 1
    12     7    17 1
    13    12    11 ar
    14    12    13 ar
    15    11     5 ar
    16    13     3 ar
    17     5    16 1
    18     5     4 ar
    19     3     4 ar
    20     3    19 1
    21     4    15 1
    22    19    20 1
    23    19    22 1
    24    20     8 2
    25    22    21 2
    26     8    21 1
    27     8    25 1
    28     9    26 1
    29     9    27 1
    30    10    28 1
    31    10    29 1
    32    10    30 1
    33    16    31 1
    34    20    32 1
    35    21    33 1
    36    22    34 1
    37    23    35 1
    38    23    36 1
    39    24    37 1
    40    24    38 1
    41    24    39 1
@<TRIPOS>SUBSTRUCTURE
     1 9GH         1 TEMP              0 ****  ****    0 ROOT
