@<TRIPOS>MOLECULE
9GJ
   50    52     1     0     0
SMALL
bcc


@<TRIPOS>ATOM
      1 N1           0.0000     0.0000     0.0000 nb         1 9GJ      -0.475000
      2 N3          -2.0910    -0.0080     1.1090 n          1 9GJ      -0.111300
      3 C4           1.3470     0.0020     2.3970 ca         1 9GJ      -0.138000
      4 C5           1.3210     0.0000     0.0000 ca         1 9GJ       0.292200
      5 C6          -6.1620     0.2260    -1.2450 ca         1 9GJ      -0.104300
      6 C7          -0.0390     0.0020     2.3620 ca         1 9GJ      -0.192700
      7 C8          -8.5660    -1.1240    -1.4960 ca         1 9GJ       0.111100
      8 C10         -7.8240    -0.8080    -2.6280 ca         1 9GJ       0.097900
      9 C13         -2.7770     0.5570     0.0970 c          1 9GJ       0.589100
     10 C15          4.0290    -0.0020    -0.1100 c3         1 9GJ       0.243700
     11 C17         -5.1340     2.4560    -0.9060 c3         1 9GJ       0.189400
     12 C1          -6.8970    -0.0920    -0.1180 ca         1 9GJ      -0.049000
     13 C2          -8.0980    -0.7660    -0.2410 ca         1 9GJ      -0.174000
     14 C3          -6.6260    -0.1290    -2.4990 ca         1 9GJ      -0.087000
     15 C9           2.0350     0.0000     1.1870 ca         1 9GJ       0.049800
     16 C11         -0.6890    -0.0010     1.1250 ca         1 9GJ       0.320200
     17 C12         -2.1060    -0.2710     3.5200 c          1 9GJ       0.587500
     18 C14         -2.7890    -0.6520     2.2310 c3         1 9GJ      -0.031000
     19 C16         -6.3340     3.9960     0.4850 c3         1 9GJ       0.255700
     20 C18         -4.8560     0.9660    -1.1070 c3         1 9GJ       0.099000
     21 C19        -10.4530    -2.0810    -0.4130 c3         1 9GJ       0.756700
     22 N2          -0.7890     0.0100     3.5420 ns         1 9GJ      -0.001100
     23 N4          -4.1200     0.4460     0.0480 ns         1 9GJ      -0.226900
     24 O1          -2.7480    -0.2180     4.5480 o          1 9GJ      -0.655500
     25 O2          -2.1860     1.1680    -0.7730 o          1 9GJ      -0.660100
     26 O3           3.3950    -0.0010     1.1710 os         1 9GJ      -0.300900
     27 O4          -9.7450    -1.7900    -1.6190 os         1 9GJ      -0.301900
     28 F1          -8.2770    -1.1540    -3.8520 f          1 9GJ      -0.114900
     29 F2         -10.7640    -0.8870     0.2450 f          1 9GJ      -0.195633
     30 F3         -11.6340    -2.7660    -0.7200 f          1 9GJ      -0.195633
     31 F4          -9.6560    -2.8770     0.4170 f          1 9GJ      -0.195633
     32 H1           1.8800     0.0020     3.3400 ha         1 9GJ       0.130000
     33 H2           1.8540    -0.0020    -0.9430 h4         1 9GJ       0.000100
     34 H3           5.1040    -0.0030     0.0190 h1         1 9GJ       0.001367
     35 H4           3.7320     0.8820    -0.6610 h1         1 9GJ       0.001367
     36 H5           3.7300    -0.8870    -0.6600 h1         1 9GJ       0.001367
     37 H6          -5.6000     2.8600    -1.7970 h1         1 9GJ       0.011200
     38 H7          -4.2020     2.9750    -0.7190 h1         1 9GJ       0.011200
     39 H8          -6.5310     0.1870     0.8620 ha         1 9GJ       0.122000
     40 H9          -8.6740    -1.0130     0.6430 ha         1 9GJ       0.137000
     41 H10         -6.0470     0.1190    -3.3800 ha         1 9GJ       0.129000
     42 H11         -3.8190    -0.3170     2.2560 h1         1 9GJ       0.048200
     43 H12         -2.7550    -1.7280     2.1090 h1         1 9GJ       0.048200
     44 H13         -5.4380     4.5260     0.7870 h1         1 9GJ      -0.010967
     45 H14         -7.0640     4.0370     1.2840 h1         1 9GJ      -0.010967
     46 H15         -6.7440     4.4580    -0.4050 h1         1 9GJ      -0.010967
     47 H16         -4.2660     0.8260    -2.0050 h1         1 9GJ       0.065700
     48 H17         -0.3430     0.2280     4.4110 hn         1 9GJ       0.184500
     49 H18         -4.6090    -0.0290     0.7800 hn         1 9GJ       0.188500
     50 O5          -6.0090     2.6320     0.2100 os         1 9GJ      -0.428600
@<TRIPOS>BOND
     1     1     4 ar  
     2     1    16 ar  
     3     2     9 1   
     4     2    16 1   
     5     2    18 1   
     6     3     6 ar  
     7     3    15 ar  
     8     3    32 1   
     9     4    15 ar  
    10     4    33 1   
    11     5    12 ar  
    12     5    14 ar  
    13     5    20 1   
    14     6    16 ar  
    15     6    22 1   
    16     7     8 ar  
    17     7    13 ar  
    18     7    27 1   
    19     8    14 ar  
    20     8    28 1   
    21     9    23 1   
    22     9    25 2   
    23    10    26 1   
    24    10    34 1   
    25    10    35 1   
    26    10    36 1   
    27    11    20 1   
    28    11    37 1   
    29    11    38 1   
    30    11    50 1   
    31    12    13 ar  
    32    12    39 1   
    33    13    40 1   
    34    14    41 1   
    35    15    26 1   
    36    17    18 1   
    37    17    22 1   
    38    17    24 2   
    39    18    42 1   
    40    18    43 1   
    41    19    44 1   
    42    19    45 1   
    43    19    46 1   
    44    19    50 1   
    45    20    23 1   
    46    20    47 1   
    47    21    27 1   
    48    21    29 1   
    49    21    30 1   
    50    21    31 1   
    51    22    48 1   
    52    23    49 1   
@<TRIPOS>SUBSTRUCTURE
     1 9GJ         1 TEMP              0 ****  ****    0 ROOT
