@<TRIPOS>MOLECULE
molecule
   50    52     1     0     0
SMALL
bcc


@<TRIPOS>ATOM
      1 N1           0.0000     0.0000     0.0000 nb         1 9GJ      -0.617000
      2 N3          -2.0910    -0.0080     1.1090 n          1 9GJ      -0.480300
      3 C4           1.3470     0.0020     2.3970 ca         1 9GJ      -0.155000
      4 C5           1.3210     0.0000     0.0000 ca         1 9GJ       0.335200
      5 C6          -6.1620     0.2260    -1.2450 ca         1 9GJ      -0.093300
      6 C7          -0.0390     0.0020     2.3620 ca         1 9GJ      -0.047700
      7 C8          -8.5660    -1.1240    -1.4960 ca         1 9GJ       0.090100
      8 C10         -7.8240    -0.8080    -2.6280 ca         1 9GJ       0.132900
      9 C13         -2.7770     0.5570     0.0970 c          1 9GJ       0.792100
     10 C15          4.0290    -0.0020    -0.1100 c3         1 9GJ       0.126700
     11 C17         -5.1340     2.4560    -0.9060 c3         1 9GJ       0.121400
     12 C1          -6.8970    -0.0920    -0.1180 ca         1 9GJ      -0.082000
     13 C2          -8.0980    -0.7660    -0.2410 ca         1 9GJ      -0.178000
     14 C3          -6.6260    -0.1290    -2.4990 ca         1 9GJ      -0.130000
     15 C9           2.0350     0.0000     1.1870 ca         1 9GJ       0.028800
     16 C11         -0.6890    -0.0010     1.1250 ca         1 9GJ       0.502200
     17 C12         -2.1060    -0.2710     3.5200 c          1 9GJ       0.691500
     18 C14         -2.7890    -0.6520     2.2310 c3         1 9GJ       0.037000
     19 C16         -6.3340     3.9960     0.4850 c3         1 9GJ       0.130700
     20 C18         -4.8560     0.9660    -1.1070 c3         1 9GJ       0.193000
     21 C19        -10.4530    -2.0810    -0.4130 c3         1 9GJ       0.795700
     22 N2          -0.7890     0.0100     3.5420 ns         1 9GJ      -0.454100
     23 N4          -4.1200     0.4460     0.0480 ns         1 9GJ      -0.594900
     24 O1          -2.7480    -0.2180     4.5480 o          1 9GJ      -0.616500
     25 O2          -2.1860     1.1680    -0.7730 o          1 9GJ      -0.609100
     26 O3           3.3950    -0.0010     1.1710 os         1 9GJ      -0.322900
     27 O4          -9.7450    -1.7900    -1.6190 os         1 9GJ      -0.328900
     28 F1          -8.2770    -1.1540    -3.8520 f          1 9GJ      -0.123900
     29 F2         -10.7640    -0.8870     0.2450 f          1 9GJ      -0.203300
     30 F3         -11.6340    -2.7660    -0.7200 f          1 9GJ      -0.203300
     31 F4          -9.6560    -2.8770     0.4170 f          1 9GJ      -0.203300
     32 H1           1.8800     0.0020     3.3400 ha         1 9GJ       0.158000
     33 H2           1.8540    -0.0020    -0.9430 h4         1 9GJ       0.035100
     34 H3           5.1040    -0.0030     0.0190 h1         1 9GJ       0.046367
     35 H4           3.7320     0.8820    -0.6610 h1         1 9GJ       0.046367
     36 H5           3.7300    -0.8870    -0.6600 h1         1 9GJ       0.046367
     37 H6          -5.6000     2.8600    -1.7970 h1         1 9GJ       0.044700
     38 H7          -4.2020     2.9750    -0.7190 h1         1 9GJ       0.044700
     39 H8          -6.5310     0.1870     0.8620 ha         1 9GJ       0.149000
     40 H9          -8.6740    -1.0130     0.6430 ha         1 9GJ       0.158000
     41 H10         -6.0470     0.1190    -3.3800 ha         1 9GJ       0.158000
     42 H11         -3.8190    -0.3170     2.2560 h1         1 9GJ       0.082700
     43 H12         -2.7550    -1.7280     2.1090 h1         1 9GJ       0.082700
     44 H13         -5.4380     4.5260     0.7870 h1         1 9GJ       0.032367
     45 H14         -7.0640     4.0370     1.2840 h1         1 9GJ       0.032367
     46 H15         -6.7440     4.4580    -0.4050 h1         1 9GJ       0.032367
     47 H16         -4.2660     0.8260    -2.0050 h1         1 9GJ       0.095700
     48 H17         -0.3430     0.2280     4.4110 hn         1 9GJ       0.343500
     49 H18         -4.6090    -0.0290     0.7800 hn         1 9GJ       0.317500
     50 O5          -6.0090     2.6320     0.2100 os         1 9GJ      -0.438600
@<TRIPOS>BOND
     1    31    21 1
     2    27    21 1
     3    27     7 1
     4    30    21 1
     5    21    29 1
     6    13     7 ar
     7    13    12 ar
     8     7     8 ar
     9    12     5 ar
    10    19    50 1
    11     8    28 1
    12     8    14 ar
    13    50    11 1
    14     5    14 ar
    15     5    20 1
    16    11    20 1
    17    20    23 1
    18    23     9 1
    19    25     9 2
    20     9     2 1
    21     1     4 ar
    22     1    16 ar
    23     4    15 ar
    24     2    16 1
    25     2    18 1
    26    16     6 ar
    27    26    15 1
    28    26    10 1
    29    15     3 ar
    30    18    17 1
    31     6     3 ar
    32     6    22 1
    33    22    17 1
    34    17    24 2
    35     3    32 1
    36     4    33 1
    37    10    34 1
    38    10    35 1
    39    10    36 1
    40    11    37 1
    41    11    38 1
    42    12    39 1
    43    13    40 1
    44    14    41 1
    45    18    42 1
    46    18    43 1
    47    19    44 1
    48    19    45 1
    49    19    46 1
    50    20    47 1
    51    22    48 1
    52    23    49 1
@<TRIPOS>SUBSTRUCTURE
     1 9GJ         1 TEMP              0 ****  ****    0 ROOT
