@<TRIPOS>MOLECULE
molecule
   40    42     1     0     0
SMALL
bcc


@<TRIPOS>ATOM
      1 C10          0.0000     0.0000     0.0000 ca         1 9GK      -0.078300
      2 C13          1.3820     0.0010     2.3940 ca         1 9GK      -0.133000
      3 C15          1.3830     0.0000     0.0000 ca         1 9GK      -0.119000
      4 C17         -4.0970     0.3610    -5.8240 cc         1 9GK      -0.225000
      5 C01         -1.6540    -3.8110    -2.8670 ca         1 9GK      -0.154000
      6 C02         -2.0300    -2.6560    -3.5200 ca         1 9GK       0.104100
      7 C03         -2.7270    -2.7280    -4.7270 ca         1 9GK      -0.034200
      8 C04         -3.0450    -3.9610    -5.2780 ca         1 9GK       0.012900
      9 C05         -2.6720    -5.1270    -4.6310 ca         1 9GK       0.134100
     10 C06         -1.9720    -5.0590    -3.4170 ca         1 9GK      -0.069600
     11 C07         -1.5720    -6.2950    -2.7250 c          1 9GK       0.876200
     12 C08         -1.0070    -1.4430    -1.7470 c3         1 9GK       0.141400
     13 C09         -0.7530    -0.0010    -1.3050 c3         1 9GK      -0.037100
     14 C11         -0.6910    -0.0060     1.1960 ca         1 9GK      -0.119000
     15 C12         -0.0010    -0.0040     2.3940 ca         1 9GK      -0.128000
     16 C14          2.0740     0.0000     1.1980 ca         1 9GK      -0.128000
     17 C16         -3.9980    -0.6290    -4.9130 cd         1 9GK      -0.135300
     18 C18         -3.2440     0.0370    -6.8980 cd         1 9GK      -0.225000
     19 C19         -2.6490    -1.1360    -6.6020 cc         1 9GK      -0.135300
     20 I01         -4.0920    -4.0590    -7.0900 i          1 9GK      -0.187900
     21 N01         -3.1070    -1.5520    -5.3840 na         1 9GK       0.041800
     22 O01         -2.9830    -6.3340    -5.1690 oh         1 9GK      -0.461100
     23 O02         -1.7220    -1.4440    -2.9850 os         1 9GK      -0.337900
     24 O03         -1.8490    -7.3770    -3.2040 o          1 9GK      -0.815300
     25 O04         -0.8990    -6.2270    -1.5580 o          1 9GK      -0.815300
     26 H1           1.9230     0.0020     3.3320 ha         1 9GK       0.122000
     27 H2           1.9240    -0.0010    -0.9380 ha         1 9GK       0.132500
     28 H5          -1.5930    -1.9540    -0.9920 h1         1 9GK       0.048200
     29 H6          -0.0610    -1.9530    -1.8760 h1         1 9GK       0.048200
     30 H7          -0.1680     0.5100    -2.0600 hc         1 9GK       0.057200
     31 H8          -1.7000     0.5090    -1.1760 hc         1 9GK       0.057200
     32 H9          -1.7740    -0.0080     1.1960 ha         1 9GK       0.132500
     33 H10         -0.5430    -0.0060     3.3320 ha         1 9GK       0.125000
     34 H11          3.1570     0.0020     1.1980 ha         1 9GK       0.125000
     35 H12         -4.5280    -0.6810    -3.9700 h4         1 9GK       0.164000
     36 H13         -3.0910     0.6250    -7.7950 ha         1 9GK       0.133000
     37 H14         -1.9330    -1.6600    -7.2240 h4         1 9GK       0.164000
     38 H15         -2.5780    -6.4140    -6.0170 ho         1 9GK       0.407000
     39 H3          -4.7230     1.2420    -5.7470 ha         1 9GK       0.133000
     40 H4          -1.1130    -3.7530    -1.9300 ha         1 9GK       0.177000
@<TRIPOS>BOND
     1     2    16 ar
     2     2    15 ar
     3    16     3 ar
     4    15    14 ar
     5     3     1 ar
     6    14     1 ar
     7     1    13 1
     8    13    12 1
     9    24    11 1
    10    12    23 1
    11    23     6 1
    12     5     6 ar
    13     5    10 ar
    14    11    10 1
    15    11    25 1
    16     6     7 ar
    17    10     9 ar
    18     7    21 1
    19     7     8 ar
    20     9     8 ar
    21     9    22 1
    22    21    19 1
    23    21    17 1
    24     8    20 1
    25    19    18 2
    26    17     4 2
    27    18     4 1
    28     2    26 1
    29     3    27 1
    30     4    39 1
    31     5    40 1
    32    12    28 1
    33    12    29 1
    34    13    30 1
    35    13    31 1
    36    14    32 1
    37    15    33 1
    38    16    34 1
    39    17    35 1
    40    18    36 1
    41    19    37 1
    42    22    38 1
@<TRIPOS>SUBSTRUCTURE
     1 9GK         1 TEMP              0 ****  ****    0 ROOT
