@<TRIPOS>MOLECULE
molecule
   46    48     1     0     0
SMALL
bcc


@<TRIPOS>ATOM
      1 C1           0.0000     0.0000     0.0000 cc         1 9GM       0.110800
      2 C2           2.0060     0.0000     1.1450 cd         1 9GM       0.155800
      3 C3           1.3240     0.0010     2.3670 cc         1 9GM       0.072800
      4 C4           3.4450    -0.0010     2.8150 cd         1 9GM       0.379400
      5 C5           4.4500    -0.0020     0.4990 c3         1 9GM       0.270800
      6 C6           6.3690     0.5730     1.6610 c3         1 9GM       0.132100
      7 N2           1.3140     0.0000     0.0000 nd         1 9GM      -0.753100
      8 O1           5.6290    -0.5420     1.1200 os         1 9GM      -0.364600
      9 O4          10.2950    -0.2260     3.7470 o          1 9GM      -0.840500
     10 O5           9.1270    -2.2200     4.7610 os         1 9GM      -0.716800
     11 O6          11.2550    -3.6620     5.3160 o          1 9GM      -0.654500
     12 P1           9.3590    -1.3310     3.4400 p5         1 9GM       1.441800
     13 O7          10.6950    -1.5830     6.6350 o          1 9GM      -0.654500
     14 O8          10.8210    -2.9640     9.0680 o          1 9GM      -0.588167
     15 O9          11.2340    -5.0690     7.7380 o          1 9GM      -0.588167
     16 P2          10.0900    -2.7430     5.9420 p5         1 9GM       1.391700
     17 O10          9.2680    -5.0700     9.3210 o          1 9GM      -0.588167
     18 O11          7.1650     1.4490    -0.4900 oh         1 9GM      -0.580800
     19 O12          3.8890     2.3650     0.7090 oh         1 9GM      -0.559800
     20 N1          -0.6670    -0.0010    -1.1990 nz         1 9GM      -0.625600
     21 N3           2.2580     0.0010     3.3500 nc         1 9GM      -0.638000
     22 N4           3.3390    -0.0010     1.4540 na         1 9GM      -0.242900
     23 C7           7.8390     0.1960     1.8600 c3         1 9GM       0.242400
     24 O2           7.9520    -0.7220     2.9490 os         1 9GM      -0.603200
     25 O3           9.9810    -2.2530     2.2750 o          1 9GM      -0.840500
     26 N5           9.1910    -3.6460     7.0410 n7         1 9GM      -0.889400
     27 P3          10.1630    -4.2120     8.2930 p5         1 9GM       1.127800
     28 C8           6.2290     1.6640     0.5680 c3         1 9GM       0.073100
     29 C9           4.7780     1.4430     0.0750 c3         1 9GM       0.069100
     30 C10         -0.0910    -0.0090     2.3530 c          1 9GM       0.673000
     31 O13         -0.7250    -0.0080     3.3950 o          1 9GM      -0.729500
     32 N6          -0.7200    -0.0040     1.1580 ns         1 9GM      -0.477400
     33 H1           4.3770    -0.0040     3.3680 h5         1 9GM       0.070100
     34 H2           4.1930    -0.5910    -0.3730 h2         1 9GM       0.085700
     35 H3           5.9250     0.9080     2.5900 h1         1 9GM       0.075700
     36 H7           7.4290     2.2800    -0.8500 ho         1 9GM       0.379000
     37 H8           3.7950     3.1330     0.1700 ho         1 9GM       0.376000
     38 H9          -1.2930     0.7790    -1.2330 hn         1 9GM       0.321800
     39 H10         -0.0070     0.0690    -1.9480 hn         1 9GM       0.321800
     40 H11          8.4140     1.0880     2.0790 h1         1 9GM       0.040200
     41 H12          8.2190    -0.2660     0.9570 h1         1 9GM       0.040200
     42 H14          8.4150    -4.1920     6.7230 hn         1 9GM       0.415800
     43 H15          6.3410     2.6520     0.9980 h1         1 9GM       0.043700
     44 H16          4.7280     1.5400    -1.0030 h1         1 9GM       0.032700
     45 H17         -1.7200    -0.0040     1.1230 hn         1 9GM       0.267500
     46 H13         -1.1880    -0.8500    -1.2910 hn         1 9GM       0.321800
@<TRIPOS>BOND
     1    31    30 2
     2    32    30 1
     3    32     1 1
     4    20     1 1
     5    30     3 1
     6     1     7 2
     7     3     2 2
     8     3    21 1
     9     7     2 1
    10     2    22 1
    11    21     4 2
    12    22     4 1
    13    22     5 1
    14     5     8 1
    15     5    29 1
    16     8     6 1
    17    19    29 1
    18    29    28 1
    19     6    28 1
    20     6    23 1
    21    24    23 1
    22    24    12 1
    23    28    18 1
    24     9    12 1
    25    13    16 1
    26    10    12 1
    27    10    16 1
    28    12    25 1
    29    16    11 1
    30    16    26 1
    31    26    27 1
    32    15    27 1
    33    27    17 1
    34    27    14 1
    35     4    33 1
    36     5    34 1
    37     6    35 1
    38    18    36 1
    39    19    37 1
    40    20    38 1
    41    20    39 1
    42    23    40 1
    43    23    41 1
    44    26    42 1
    45    28    43 1
    46    29    44 1
    47    32    45 1
    48    46    20 1
@<TRIPOS>SUBSTRUCTURE
     1 9GM         1 TEMP              0 ****  ****    0 ROOT
