@<TRIPOS>MOLECULE
molecule
   33    34     1     0     0
SMALL
bcc


@<TRIPOS>ATOM
      1 C10          0.0000     0.0000     0.0000 cc         1 9GN      -0.136300
      2 C13          1.8030     0.0000     1.2940 cc         1 9GN      -0.136300
      3 C01          3.8010    -0.0010    -3.3970 ca         1 9GN      -0.093600
      4 C02          2.9770    -1.0990    -3.1260 ca         1 9GN      -0.080000
      5 C03          2.1720    -1.0960    -2.0030 ca         1 9GN       0.003900
      6 C04          2.1820     0.0020    -1.1360 ca         1 9GN       0.014800
      7 C05          2.9970     1.0920    -1.4010 ca         1 9GN      -0.009100
      8 C06          3.8060     1.0980    -2.5260 ca         1 9GN       0.164100
      9 I01          3.0040     2.7330    -0.0980 i          1 9GN      -0.191900
     10 C07          1.4800    -3.6000    -3.0420 c3         1 9GN      -0.007300
     11 C08          0.6410    -4.8710    -2.8890 c3         1 9GN      -0.069400
     12 N01          1.3660     0.0000     0.0000 na         1 9GN       0.029800
     13 O01          4.6040     2.1650    -2.7830 oh         1 9GN      -0.459100
     14 O02          5.3820     0.9500    -4.8200 o          1 9GN      -0.816300
     15 O03          4.6570    -1.0590    -5.4260 o          1 9GN      -0.816300
     16 C11         -0.4210    -0.0020     1.2810 cd         1 9GN      -0.221500
     17 C12          0.7230    -0.0070     2.1030 cd         1 9GN      -0.221500
     18 C14          0.9330    -5.8180    -4.0550 c3         1 9GN      -0.090100
     19 H1          -0.6350     0.0020    -0.8780 h4         1 9GN       0.168000
     20 H2           2.8370    -0.0010     1.6160 h4         1 9GN       0.168000
     21 H3           2.9690    -1.9500    -3.7970 ha         1 9GN       0.173000
     22 H4           2.5320    -3.8600    -3.0420 h1         1 9GN       0.073700
     23 H5           1.2290    -3.1120    -3.9760 h1         1 9GN       0.073700
     24 H6           0.8920    -5.3590    -1.9550 hc         1 9GN       0.045700
     25 H7          -0.4100    -4.6110    -2.8900 hc         1 9GN       0.045700
     26 H8           4.0780     2.9460    -2.8370 ho         1 9GN       0.409000
     27 H10         -1.4510    -0.0040     1.6170 ha         1 9GN       0.135000
     28 H11          0.7340    -0.0090     3.1860 ha         1 9GN       0.135000
     29 H12          0.6820    -5.3300    -4.9890 hc         1 9GN       0.034367
     30 H13          0.3390    -6.7180    -3.9470 hc         1 9GN       0.034367
     31 H14          1.9850    -6.0780    -4.0540 hc         1 9GN       0.034367
     32 S01          1.1340    -2.4780    -1.6600 ss         1 9GN      -0.274000
     33 C09          4.6640    -0.0020    -4.5890 c          1 9GN       0.878200
@<TRIPOS>BOND
     1    18    11 1
     2    11    10 1
     3    10    32 1
     4    14    33 1
     5    32     5 1
     6     4     5 ar
     7     4     3 ar
     8    33    15 1
     9    33     3 1
    10     5     6 ar
    11     3     8 ar
    12     6    12 1
    13     6     7 ar
    14     8     7 ar
    15     8    13 1
    16    12     2 1
    17    12     1 1
    18     7     9 1
    19     2    17 2
    20     1    16 2
    21    17    16 1
    22     1    19 1
    23     2    20 1
    24     4    21 1
    25    10    22 1
    26    10    23 1
    27    11    24 1
    28    11    25 1
    29    13    26 1
    30    16    27 1
    31    17    28 1
    32    18    29 1
    33    18    30 1
    34    18    31 1
@<TRIPOS>SUBSTRUCTURE
     1 9GN         1 TEMP              0 ****  ****    0 ROOT
