@<TRIPOS>MOLECULE
9GP
   31    31     1     0     0
SMALL
bcc


@<TRIPOS>ATOM
      1 O2           0.0000     0.0000     0.0000 oh         1 9GP      -0.574800
      2 C2           1.4290     0.0000     0.0000 c3         1 9GP       0.129100
      3 C3           1.9420     0.0000     1.4440 c3         1 9GP       0.149100
      4 O3           1.5300    -1.2030     2.0970 oh         1 9GP      -0.590800
      5 C4           3.4710     0.0780     1.4300 c3         1 9GP       0.139100
      6 O4           3.9570     0.1520     2.7720 oh         1 9GP      -0.579800
      7 C5           3.9040     1.3290     0.6610 c3         1 9GP       0.174100
      8 C6           5.4310     1.3830     0.5910 c3         1 9GP       0.225400
      9 O6           5.8380     2.6070    -0.0240 oh         1 9GP      -0.576800
     10 O5           3.3680     1.2800    -0.6630 os         1 9GP      -0.401600
     11 C1           1.9400     1.2540    -0.7150 c3         1 9GP       0.224500
     12 N1           1.5020     1.2320    -2.1130 ns         1 9GP      -0.180900
     13 C7           1.1810     2.3830    -2.7360 c          1 9GP       0.566100
     14 O7           1.2550     3.4370    -2.1390 o          1 9GP      -0.600100
     15 C9           0.7300     2.3610    -4.1740 c3         1 9GP       0.161400
     16 O9           0.4490     3.6940    -4.6050 oh         1 9GP      -0.550800
     17 HO2         -0.3140    -0.8600    -0.2230 ho         1 9GP       0.397000
     18 H2           1.7950    -0.8810    -0.5120 h1         1 9GP       0.016700
     19 H3           1.5410     0.8590     1.9690 h1         1 9GP       0.031700
     20 HO3          0.9910    -0.9890     2.8390 ho         1 9GP       0.403000
     21 H4           3.8730    -0.8020     0.9420 h1         1 9GP       0.019700
     22 HO4          4.2820    -0.6930     3.0350 ho         1 9GP       0.399000
     23 H5           3.5290     2.2100     1.1680 h1         1 9GP       0.036700
     24 H6           5.8400     1.3300     1.5930 h1         1 9GP      -0.004300
     25 H6A          5.7960     0.5470     0.0070 h1         1 9GP      -0.004300
     26 HO6          6.7780     2.6740     0.0000 ho         1 9GP       0.387000
     27 H1           1.5470     2.1340    -0.2220 h2         1 9GP       0.064700
     28 HN1          1.4820     0.3680    -2.6180 hn         1 9GP       0.166500
     29 H9           1.5130     1.9400    -4.7910 h1         1 9GP      -0.005300
     30 H9A         -0.1640     1.7570    -4.2630 h1         1 9GP      -0.005300
     31 HO9          0.1660     3.6800    -5.5040 ho         1 9GP       0.384000
@<TRIPOS>BOND
     1     1     2 1   
     2     1    17 1   
     3     2     3 1   
     4     2    11 1   
     5     2    18 1   
     6     3     4 1   
     7     3     5 1   
     8     3    19 1   
     9     4    20 1   
    10     5     6 1   
    11     5     7 1   
    12     5    21 1   
    13     6    22 1   
    14     7     8 1   
    15     7    10 1   
    16     7    23 1   
    17     8     9 1   
    18     8    24 1   
    19     8    25 1   
    20     9    26 1   
    21    10    11 1   
    22    11    12 1   
    23    11    27 1   
    24    12    13 1   
    25    12    28 1   
    26    13    14 2   
    27    13    15 1   
    28    15    16 1   
    29    15    29 1   
    30    15    30 1   
    31    16    31 1   
@<TRIPOS>SUBSTRUCTURE
     1 9GP         1 TEMP              0 ****  ****    0 ROOT
