@<TRIPOS>MOLECULE
molecule
   36    37     1     0     0
SMALL
bcc


@<TRIPOS>ATOM
      1 C10          0.0000     0.0000     0.0000 c3         1 9GQ      -0.083400
      2 C13         -2.0350    -0.6420     6.8320 cc         1 9GQ      -0.225500
      3 C15          1.5300     0.0000     0.0000 c3         1 9GQ      -0.090100
      4 C01         -4.7040     0.0020     1.8730 ca         1 9GQ      -0.154000
      5 C02         -3.8650     0.0020     2.9690 ca         1 9GQ       0.105100
      6 C03         -4.3970     0.0010     4.2590 ca         1 9GQ      -0.035200
      7 C04         -5.7720     0.0010     4.4480 ca         1 9GQ       0.012900
      8 C05         -6.6220     0.0020     3.3540 ca         1 9GQ       0.134100
      9 C06         -6.0920     0.0040     2.0560 ca         1 9GQ      -0.069600
     10 C07         -6.9900     0.0030     0.8910 c          1 9GQ       0.877200
     11 C08         -2.0400     0.0010     1.4430 c3         1 9GQ       0.137400
     12 C09         -0.5100     0.0000     1.4430 c3         1 9GQ      -0.081400
     13 C11         -3.4250     1.0050     6.2830 cc         1 9GQ      -0.134800
     14 C12         -2.5030     0.6380     7.1960 cd         1 9GQ      -0.225500
     15 C14         -2.6840    -1.0070     5.7090 cd         1 9GQ      -0.134800
     16 I01         -6.5610    -0.0010     6.3880 i          1 9GQ      -0.188900
     17 N01         -3.5410    -0.0000     5.3660 na         1 9GQ       0.042800
     18 O01         -7.9670     0.0010     3.5390 oh         1 9GQ      -0.461100
     19 O02         -6.4780     0.0020    -0.3560 o          1 9GQ      -0.816300
     20 O03         -8.1950     0.0040     1.0530 o          1 9GQ      -0.816300
     21 O04         -2.5170     0.0020     2.7900 os         1 9GQ      -0.334900
     22 H1          -0.3610     0.8850    -0.5110 hc         1 9GQ       0.044700
     23 H2          -0.3610    -0.8850    -0.5110 hc         1 9GQ       0.044700
     24 H4           1.8920     0.8830     0.5130 hc         1 9GQ       0.030033
     25 H5           1.8920    -0.8860     0.5080 hc         1 9GQ       0.030033
     26 H6           1.8920     0.0030    -1.0210 hc         1 9GQ       0.030033
     27 H8          -2.4020    -0.8830     0.9320 h1         1 9GQ       0.043700
     28 H9          -2.4010     0.8860     0.9320 h1         1 9GQ       0.043700
     29 H10         -0.1480     0.8840     1.9540 hc         1 9GQ       0.050200
     30 H11         -0.1490    -0.8850     1.9530 hc         1 9GQ       0.050200
     31 H12         -3.9760     1.9380     6.2770 h4         1 9GQ       0.164000
     32 H13         -2.1830     1.2180     8.0530 ha         1 9GQ       0.133000
     33 H14         -2.5510    -1.9380     5.1730 h4         1 9GQ       0.164000
     34 H15         -8.2200     0.7750     4.0160 ho         1 9GQ       0.407000
     35 H3          -1.2870    -1.2230     7.3580 ha         1 9GQ       0.133000
     36 H7          -4.2890     0.0030     0.8720 ha         1 9GQ       0.175000
@<TRIPOS>BOND
     1     3     1 1
     2     1    12 1
     3    12    11 1
     4    11    21 1
     5    20    10 1
     6    21     5 1
     7    10    19 1
     8    10     9 1
     9     4     5 ar
    10     4     9 ar
    11     5     6 ar
    12     9     8 ar
    13     6    17 1
    14     6     7 ar
    15     8     7 ar
    16     8    18 1
    17    17    13 1
    18    17    15 1
    19     7    16 1
    20    13    14 2
    21    15     2 2
    22    14     2 1
    23     1    22 1
    24     1    23 1
    25     2    35 1
    26     3    24 1
    27     3    25 1
    28     3    26 1
    29     4    36 1
    30    11    27 1
    31    11    28 1
    32    12    29 1
    33    12    30 1
    34    13    31 1
    35    14    32 1
    36    15    33 1
    37    18    34 1
@<TRIPOS>SUBSTRUCTURE
     1 9GQ         1 TEMP              0 ****  ****    0 ROOT
