@<TRIPOS>MOLECULE
9GS
   72    77     1     0     0
SMALL
bcc


@<TRIPOS>ATOM
      1 C6           0.0000     0.0000     0.0000 ca         1 9GS      -0.151500
      2 C7           1.3820     0.0000     0.0000 ca         1 9GS       0.002000
      3 C8           2.0740     0.0000     1.1960 ca         1 9GS      -0.117000
      4 C15          2.7510     4.0920     4.9790 c3         1 9GS       0.031000
      5 C17          4.0770     6.2370     5.1970 c3         1 9GS      -0.016900
      6 C20          1.8840     6.0900     6.2660 c3         1 9GS      -0.016900
      7 C21          3.7550     4.6390     7.1090 ca         1 9GS       0.313600
      8 C24          4.8090     3.0560     9.0700 ca         1 9GS      -0.165300
      9 C26          3.7550     3.2600     6.9320 ca         1 9GS      -0.163700
     10 C28          6.5930     4.7760    10.8780 ca         1 9GS       0.666600
     11 C12          3.0460     1.6270     5.2690 c          1 9GS       0.591100
     12 N11          2.3830     1.3810     4.1210 ns         1 9GS      -0.219900
     13 C9           1.3830     0.0000     2.3940 ca         1 9GS      -0.078300
     14 C38          0.0010     0.0020     2.3940 ca         1 9GS      -0.117000
     15 C39         -0.6910     0.0000     1.1970 ca         1 9GS       0.002000
     16 S3          -0.8810     0.0070    -1.5250 sy         1 9GS       0.874300
     17 O4           0.0120    -0.6000    -2.4490 o          1 9GS      -0.583800
     18 O5          -2.1300    -0.5940    -1.2120 o          1 9GS      -0.583800
     19 C2          -1.1000     1.7650    -1.9140 c3         1 9GS       0.003400
     20 C1          -1.8630     1.9040    -3.2330 c3         1 9GS       0.038900
     21 N14          3.1820     2.8930     5.7100 n          1 9GS       0.004000
     22 C16          3.1240     5.2590     5.8920 c3         1 9GS      -0.102300
     23 C19          1.7470     7.0570     5.0610 c3         1 9GS      -0.026400
     24 C18          3.2030     7.3940     4.6740 c3         1 9GS      -0.026400
     25 C25          4.2950     2.4540     7.9400 ca         1 9GS      -0.087000
     26 C23          4.7730     4.4450     9.1770 cp         1 9GS       0.413800
     27 N22          4.2530     5.1800     8.2040 nb         1 9GS      -0.512000
     28 C27          5.3180     5.1060    10.3860 cp         1 9GS      -0.399100
     29 C34          4.5820     6.0720    11.0690 ca         1 9GS       0.511600
     30 C35          3.2090     6.4670    10.5900 cx         1 9GS      -0.175000
     31 C37          2.9570     7.9500    10.3110 cx         1 9GS      -0.063400
     32 C36          2.3370     7.2880    11.5430 cx         1 9GS      -0.063400
     33 N33          5.1060     6.6370    12.1450 nb         1 9GS      -0.667000
     34 C32          6.3060     6.3000    12.5760 ca         1 9GS       0.674900
     35 N31          7.0370     5.3880    11.9660 nb         1 9GS      -0.720000
     36 C30          8.6330     3.5620    10.8210 c3         1 9GS       0.253700
     37 H1           1.9240    -0.0000    -0.9380 ha         1 9GS       0.126000
     38 H2           3.1570    -0.0000     1.1960 ha         1 9GS       0.115000
     39 H3           1.5520    -0.5100     4.4530 h1         1 9GS       0.033700
     40 H4           3.0830    -0.5110     3.5680 h1         1 9GS       0.033700
     41 H5           3.2810     4.1680     4.0370 h1         1 9GS       0.026700
     42 H6           1.6810     4.0690     4.8170 h1         1 9GS       0.026700
     43 H7           4.5740     5.7450     4.3700 hc         1 9GS       0.028200
     44 H8           4.8040     6.6130     5.9060 hc         1 9GS       0.028200
     45 H9           1.0100     5.4570     6.3500 hc         1 9GS       0.028200
     46 H10          2.0570     6.6430     7.1820 hc         1 9GS       0.028200
     47 H11          5.2340     2.4560     9.8660 ha         1 9GS       0.124000
     48 H12          2.0750     2.1420     3.5480 hn         1 9GS       0.175500
     49 H13         -0.5410     0.0020     3.3330 ha         1 9GS       0.115000
     50 H14         -1.7740     0.0010     1.1980 ha         1 9GS       0.126000
     51 H15         -0.1300     2.2380    -2.0050 h1         1 9GS       0.061700
     52 H16         -1.6620     2.2430    -1.1200 h1         1 9GS       0.061700
     53 H17         -1.9940     2.9540    -3.4660 hc         1 9GS       0.014033
     54 H18         -2.8330     1.4310    -3.1420 hc         1 9GS       0.014033
     55 H19         -1.3020     1.4260    -4.0270 hc         1 9GS       0.014033
     56 H20          1.2430     6.5640     4.2380 hc         1 9GS       0.014450
     57 H21          1.2170     7.9540     5.3550 hc         1 9GS       0.014450
     58 H22          3.2920     7.4670     3.5970 hc         1 9GS       0.014450
     59 H23          3.5030     8.3240     5.1400 hc         1 9GS       0.014450
     60 H24          4.3120     1.3760     7.8340 ha         1 9GS       0.154000
     61 H25          2.6620     5.7870     9.9490 hc         1 9GS       0.072700
     62 H26          3.7930     8.6110    10.5070 hc         1 9GS       0.049700
     63 H27          2.2720     8.1640     9.5000 hc         1 9GS       0.049700
     64 H28          1.2720     7.0970    11.4850 hc         1 9GS       0.049700
     65 H29          2.7930     7.5440    12.4920 hc         1 9GS       0.049700
     66 H30          6.7000     6.7830    13.4610 h5         1 9GS      -0.002900
     67 H31          9.2300     4.4660    10.8300 h1         1 9GS       0.002367
     68 H32          9.1210     2.8130    10.2100 h1         1 9GS       0.002367
     69 H33          8.5270     3.1900    11.8330 h1         1 9GS       0.002367
     70 C10          2.1370    -0.0000     3.6980 c3         1 9GS       0.119300
     71 O29          7.3520     3.8430    10.2520 os         1 9GS      -0.420100
     72 O13          3.5210     0.7060     5.9050 o          1 9GS      -0.689100
@<TRIPOS>BOND
     1     1     2 ar  
     2     1    15 ar  
     3     1    16 1   
     4     2     3 ar  
     5     2    37 1   
     6     3    13 ar  
     7     3    38 1   
     8     4    21 1   
     9     4    22 1   
    10     4    41 1   
    11     4    42 1   
    12     5    22 1   
    13     5    24 1   
    14     5    43 1   
    15     5    44 1   
    16     6    22 1   
    17     6    23 1   
    18     6    45 1   
    19     6    46 1   
    20     7     9 ar  
    21     7    22 1   
    22     7    27 ar  
    23     8    25 ar  
    24     8    26 ar  
    25     8    47 1   
    26     9    21 1   
    27     9    25 ar  
    28    10    28 ar  
    29    10    35 ar  
    30    10    71 1   
    31    11    12 1   
    32    11    21 1   
    33    11    72 2   
    34    12    48 1   
    35    12    70 1   
    36    13    14 ar  
    37    13    70 1   
    38    14    15 ar  
    39    14    49 1   
    40    15    50 1   
    41    16    17 2   
    42    16    18 2   
    43    16    19 1   
    44    19    20 1   
    45    19    51 1   
    46    19    52 1   
    47    20    53 1   
    48    20    54 1   
    49    20    55 1   
    50    23    24 1   
    51    23    56 1   
    52    23    57 1   
    53    24    58 1   
    54    24    59 1   
    55    25    60 1   
    56    26    27 ar  
    57    26    28 1   
    58    28    29 ar  
    59    29    30 1   
    60    29    33 ar  
    61    30    31 1   
    62    30    32 1   
    63    30    61 1   
    64    31    32 1   
    65    31    62 1   
    66    31    63 1   
    67    32    64 1   
    68    32    65 1   
    69    33    34 ar  
    70    34    35 ar  
    71    34    66 1   
    72    36    67 1   
    73    36    68 1   
    74    36    69 1   
    75    36    71 1   
    76    39    70 1   
    77    40    70 1   
@<TRIPOS>SUBSTRUCTURE
     1 9GS         1 TEMP              0 ****  ****    0 ROOT
