@<TRIPOS>MOLECULE
molecule
   72    77     1     0     0
SMALL
bcc


@<TRIPOS>ATOM
      1 C6           0.0000     0.0000     0.0000 ca         1 9GS      -0.291500
      2 C7           1.3820     0.0000     0.0000 ca         1 9GS      -0.033000
      3 C8           2.0740     0.0000     1.1960 ca         1 9GS      -0.135000
      4 C15          2.7510     4.0920     4.9790 c3         1 9GS       0.104000
      5 C17          4.0770     6.2370     5.1970 c3         1 9GS      -0.068400
      6 C20          1.8840     6.0900     6.2660 c3         1 9GS      -0.068400
      7 C21          3.7550     4.6390     7.1090 ca         1 9GS       0.380600
      8 C24          4.8090     3.0560     9.0700 ca         1 9GS      -0.195300
      9 C26          3.7550     3.2600     6.9320 ca         1 9GS      -0.036700
     10 C28          6.5930     4.7760    10.8780 ca         1 9GS       0.699600
     11 C12          3.0460     1.6270     5.2690 c          1 9GS       0.797100
     12 N11          2.3830     1.3810     4.1210 ns         1 9GS      -0.598900
     13 C9           1.3830     0.0000     2.3940 ca         1 9GS      -0.067300
     14 C38          0.0010     0.0020     2.3940 ca         1 9GS      -0.135000
     15 C39         -0.6910     0.0000     1.1970 ca         1 9GS      -0.033000
     16 S3          -0.8810     0.0070    -1.5250 sy         1 9GS       1.192300
     17 O4           0.0120    -0.6000    -2.4490 o          1 9GS      -0.615800
     18 O5          -2.1300    -0.5940    -1.2120 o          1 9GS      -0.615800
     19 C2          -1.1000     1.7650    -1.9140 c3         1 9GS      -0.206600
     20 C1          -1.8630     1.9040    -3.2330 c3         1 9GS      -0.074100
     21 N14          3.1820     2.8930     5.7100 n          1 9GS      -0.386000
     22 C16          3.1240     5.2590     5.8920 c3         1 9GS      -0.112300
     23 C19          1.7470     7.0570     5.0610 c3         1 9GS      -0.086900
     24 C18          3.2030     7.3940     4.6740 c3         1 9GS      -0.086900
     25 C25          4.2950     2.4540     7.9400 ca         1 9GS      -0.112000
     26 C23          4.7730     4.4450     9.1770 cp         1 9GS       0.463800
     27 N22          4.2530     5.1800     8.2040 nb         1 9GS      -0.653000
     28 C27          5.3180     5.1060    10.3860 cp         1 9GS      -0.391100
     29 C34          4.5820     6.0720    11.0690 ca         1 9GS       0.554600
     30 C35          3.2090     6.4670    10.5900 cx         1 9GS      -0.189000
     31 C37          2.9570     7.9500    10.3110 cx         1 9GS      -0.117400
     32 C36          2.3370     7.2880    11.5430 cx         1 9GS      -0.117400
     33 N33          5.1060     6.6370    12.1450 nb         1 9GS      -0.776000
     34 C32          6.3060     6.3000    12.5760 ca         1 9GS       0.724900
     35 N31          7.0370     5.3880    11.9660 nb         1 9GS      -0.825000
     36 C30          8.6330     3.5620    10.8210 c3         1 9GS       0.134700
     37 H1           1.9240    -0.0000    -0.9380 ha         1 9GS       0.154500
     38 H2           3.1570    -0.0000     1.1960 ha         1 9GS       0.143500
     39 H3           1.5520    -0.5100     4.4530 h1         1 9GS       0.065700
     40 H4           3.0830    -0.5110     3.5680 h1         1 9GS       0.065700
     41 H5           3.2810     4.1680     4.0370 h1         1 9GS       0.053700
     42 H6           1.6810     4.0690     4.8170 h1         1 9GS       0.053700
     43 H7           4.5740     5.7450     4.3700 hc         1 9GS       0.058700
     44 H8           4.8040     6.6130     5.9060 hc         1 9GS       0.058700
     45 H9           1.0100     5.4570     6.3500 hc         1 9GS       0.058700
     46 H10          2.0570     6.6430     7.1820 hc         1 9GS       0.058700
     47 H11          5.2340     2.4560     9.8660 ha         1 9GS       0.152000
     48 H12          2.0750     2.1420     3.5480 hn         1 9GS       0.314500
     49 H13         -0.5410     0.0020     3.3330 ha         1 9GS       0.143500
     50 H14         -1.7740     0.0010     1.1980 ha         1 9GS       0.154500
     51 H15         -0.1300     2.2380    -2.0050 h1         1 9GS       0.096700
     52 H16         -1.6620     2.2430    -1.1200 h1         1 9GS       0.096700
     53 H17         -1.9940     2.9540    -3.4660 hc         1 9GS       0.053033
     54 H18         -2.8330     1.4310    -3.1420 hc         1 9GS       0.053033
     55 H19         -1.3020     1.4260    -4.0270 hc         1 9GS       0.053033
     56 H20          1.2430     6.5640     4.2380 hc         1 9GS       0.044700
     57 H21          1.2170     7.9540     5.3550 hc         1 9GS       0.044700
     58 H22          3.2920     7.4670     3.5970 hc         1 9GS       0.044700
     59 H23          3.5030     8.3240     5.1400 hc         1 9GS       0.044700
     60 H24          4.3120     1.3760     7.8340 ha         1 9GS       0.177000
     61 H25          2.6620     5.7870     9.9490 hc         1 9GS       0.101700
     62 H26          3.7930     8.6110    10.5070 hc         1 9GS       0.080700
     63 H27          2.2720     8.1640     9.5000 hc         1 9GS       0.080700
     64 H28          1.2720     7.0970    11.4850 hc         1 9GS       0.080700
     65 H29          2.7930     7.5440    12.4920 hc         1 9GS       0.080700
     66 H30          6.7000     6.7830    13.4610 h5         1 9GS       0.060100
     67 H31          9.2300     4.4660    10.8300 h1         1 9GS       0.050033
     68 H32          9.1210     2.8130    10.2100 h1         1 9GS       0.050033
     69 H33          8.5270     3.1900    11.8330 h1         1 9GS       0.050033
     70 C10          2.1370    -0.0000     3.6980 c3         1 9GS       0.171300
     71 O29          7.3520     3.8430    10.2520 os         1 9GS      -0.430100
     72 O13          3.5210     0.7060     5.9050 o          1 9GS      -0.641100
@<TRIPOS>BOND
     1    70    12 1
     2    70    13 1
     3     3    13 ar
     4     3     2 ar
     5    12    11 1
     6    72    11 2
     7    13    14 ar
     8    11    21 1
     9     2     1 ar
    10    21     4 1
    11    21     9 1
    12    25     9 ar
    13    25     8 ar
    14     4    22 1
    15     9     7 ar
    16    14    15 ar
    17     1    15 ar
    18     1    16 1
    19     6    22 1
    20     6    23 1
    21    32    30 1
    22    32    31 1
    23    30    31 1
    24    30    29 1
    25     8    26 ar
    26    18    16 2
    27     7    22 1
    28     7    27 ar
    29    22     5 1
    30    26    27 ar
    31    26    28 1
    32    16    19 1
    33    16    17 2
    34    23    24 1
    35    29    28 ar
    36    29    33 ar
    37    19    20 1
    38    28    10 ar
    39     5    24 1
    40    33    34 ar
    41    10    71 1
    42    10    35 ar
    43    34    35 ar
    44    71    36 1
    45     2    37 1
    46     3    38 1
    47    70    39 1
    48    70    40 1
    49     4    41 1
    50     4    42 1
    51     5    43 1
    52     5    44 1
    53     6    45 1
    54     6    46 1
    55     8    47 1
    56    12    48 1
    57    14    49 1
    58    15    50 1
    59    19    51 1
    60    19    52 1
    61    20    53 1
    62    20    54 1
    63    20    55 1
    64    23    56 1
    65    23    57 1
    66    24    58 1
    67    24    59 1
    68    25    60 1
    69    30    61 1
    70    31    62 1
    71    31    63 1
    72    32    64 1
    73    32    65 1
    74    34    66 1
    75    36    67 1
    76    36    68 1
    77    36    69 1
@<TRIPOS>SUBSTRUCTURE
     1 9GS         1 TEMP              0 ****  ****    0 ROOT
