@<TRIPOS>MOLECULE
molecule
   31    32     1     0     0
SMALL
bcc


@<TRIPOS>ATOM
      1 C10          0.0000     0.0000     0.0000 c2         1 9GT      -0.226000
      2 C13          6.2080    -3.6160    -0.5550 cc         1 9GT      -0.225500
      3 C01          3.6580    -0.3040     3.4600 ca         1 9GT      -0.154000
      4 C02          3.9090    -1.0790     2.3460 ca         1 9GT       0.102100
      5 C03          4.9660    -1.9920     2.3500 ca         1 9GT      -0.033200
      6 C04          5.7690    -2.1260     3.4740 ca         1 9GT       0.012900
      7 C05          5.5250    -1.3530     4.5980 ca         1 9GT       0.135100
      8 C06          4.4660    -0.4340     4.5960 ca         1 9GT      -0.070600
      9 C07          4.2010     0.3900     5.7870 c          1 9GT       0.877200
     10 C08          2.0630     0.0000     1.3060 c3         1 9GT       0.167600
     11 C09          1.3100     0.0000     0.0000 c2         1 9GT      -0.157200
     12 C11          4.3790    -3.7240     0.7050 cd         1 9GT      -0.134800
     13 C12          4.9670    -4.2620    -0.3820 cc         1 9GT      -0.225500
     14 C14          6.3350    -2.7120     0.4370 cd         1 9GT      -0.134800
     15 I01          7.3510    -3.5000     3.4720 i          1 9GT      -0.187900
     16 N01          5.2160    -2.7750     1.2180 na         1 9GT       0.041800
     17 O01          6.3100    -1.4840     5.6970 oh         1 9GT      -0.461100
     18 O02          3.1810     1.2700     5.7840 o          1 9GT      -0.815300
     19 O03          4.9020     0.2750     6.7730 o          1 9GT      -0.815300
     20 O04          3.1260    -0.9520     1.2410 os         1 9GT      -0.330900
     21 H1          -0.5420     0.0000    -0.9380 ha         1 9GT       0.112000
     22 H2          -0.5420     0.0000     0.9380 ha         1 9GT       0.112000
     23 H5           2.4720     0.9870     1.4870 h1         1 9GT       0.050700
     24 H6           1.3890    -0.2650     2.1120 h1         1 9GT       0.050700
     25 H7           1.8520    -0.0000    -0.9380 ha         1 9GT       0.131000
     26 H8           3.4120    -4.0030     1.1070 h4         1 9GT       0.164500
     27 H9           4.5580    -5.0430    -1.0120 ha         1 9GT       0.133000
     28 H10          7.1790    -2.0500     0.5880 h4         1 9GT       0.164500
     29 H11          7.2020    -1.2720     5.4740 ho         1 9GT       0.407000
     30 H3           6.9290    -3.8130    -1.3390 ha         1 9GT       0.133000
     31 H4           2.8380     0.4040     3.4550 ha         1 9GT       0.175000
@<TRIPOS>BOND
     1     1    11 2
     2    11    10 1
     3    10    20 1
     4    19     9 1
     5    20     4 1
     6     3     4 ar
     7     3     8 ar
     8     9     8 1
     9     9    18 1
    10     4     5 ar
    11     8     7 ar
    12     5    16 1
    13     5     6 ar
    14     7     6 ar
    15     7    17 1
    16    16    14 1
    17    16    12 1
    18     6    15 1
    19    14     2 2
    20    12    13 2
    21     2    13 1
    22     1    21 1
    23     1    22 1
    24     2    30 1
    25     3    31 1
    26    10    23 1
    27    10    24 1
    28    11    25 1
    29    12    26 1
    30    13    27 1
    31    14    28 1
    32    17    29 1
@<TRIPOS>SUBSTRUCTURE
     1 9GT         1 TEMP              0 ****  ****    0 ROOT
