@<TRIPOS>MOLECULE
molecule
   37    39     1     0     0
SMALL
bcc


@<TRIPOS>ATOM
      1 CAG          0.0000     0.0000     0.0000 c3         1 9GU       0.146800
      2 CAH          1.5320     0.0000     0.0000 c3         1 9GU       0.087500
      3 NAL          1.9990     0.0000     1.3940 n          1 9GU      -0.474800
      4 CAM          2.9050     0.9010     1.8210 c          1 9GU       0.694900
      5 OAN          3.3670     1.7130     1.0440 o          1 9GU      -0.612100
      6 CAI          1.4500    -1.0100     2.3120 c3         1 9GU       0.087500
      7 CAJ         -0.0790    -0.9710     2.2200 c3         1 9GU       0.146800
      8 NAK         -0.4870    -1.1190     0.8170 nh         1 9GU      -0.598000
      9 CAF         -1.8730    -1.2520     0.7100 ca         1 9GU       0.132600
     10 CAA         -2.5330    -2.2560     1.4080 ca         1 9GU      -0.175000
     11 CAB         -3.9030    -2.3840     1.3000 ca         1 9GU      -0.054500
     12 CAC         -4.6190    -1.5150     0.4980 ca         1 9GU      -0.209300
     13 CAO         -6.1160    -1.6570     0.3820 c3         1 9GU       0.676200
     14 FAQ         -6.7350    -0.8850     1.3710 f          1 9GU      -0.224967
     15 FAR         -6.5300    -1.2180    -0.8790 f          1 9GU      -0.224967
     16 FAP         -6.4700    -3.0000     0.5500 f          1 9GU      -0.224967
     17 CAD         -3.9660    -0.5150    -0.1990 ca         1 9GU      -0.054500
     18 CAE         -2.5960    -0.3770    -0.0920 ca         1 9GU      -0.175000
     19 H1          -0.3600     0.9330     0.4160 h1         1 9GU       0.055450
     20 H2          -0.3600    -0.1120    -1.0160 h1         1 9GU       0.055450
     21 H3           1.8950     0.8870    -0.5050 h1         1 9GU       0.087200
     22 H4           1.8950    -0.8870    -0.5050 h1         1 9GU       0.087200
     23 H6           1.7590    -0.7860     3.3260 h1         1 9GU       0.087200
     24 H7           1.8060    -1.9920     2.0250 h1         1 9GU       0.087200
     25 H8          -0.4960    -1.7830     2.8050 h1         1 9GU       0.055450
     26 H9          -0.4390    -0.0230     2.6020 h1         1 9GU       0.055450
     27 H10         -1.9720    -2.9370     2.0360 ha         1 9GU       0.145000
     28 H11         -4.4180    -3.1670     1.8440 ha         1 9GU       0.148000
     29 H12         -4.5310     0.1660    -0.8250 ha         1 9GU       0.148000
     30 H13         -2.0850     0.4070    -0.6380 ha         1 9GU       0.145000
     31 N1           3.3000     0.9030     3.1100 n          1 9GU       0.064300
     32 N2           2.9680    -0.0420     4.0930 nc         1 9GU      -0.200800
     33 N3           3.5400     0.3090     5.1920 nd         1 9GU      -0.312000
     34 C3           4.2350     1.4340     5.0040 cd         1 9GU       0.244200
     35 C4           4.1090     1.8200     3.7200 cc         1 9GU      -0.155600
     36 H5           4.8140     1.9490     5.7610 h4         1 9GU       0.058100
     37 H14          4.5550     2.6940     3.2600 h4         1 9GU       0.205000
@<TRIPOS>BOND
     1     5     4 2
     2     2     1 1
     3     2     3 1
     4     4     3 1
     5     1     8 1
     6     3     6 1
     7    18    17 ar
     8    18     9 ar
     9     8     9 1
    10     8     7 1
    11     6     7 1
    12    17    12 ar
    13     9    10 ar
    14    15    13 1
    15    12    13 1
    16    12    11 ar
    17    10    11 ar
    18    13    14 1
    19    13    16 1
    20     1    19 1
    21     1    20 1
    22     2    21 1
    23     2    22 1
    24     6    23 1
    25     6    24 1
    26     7    25 1
    27     7    26 1
    28    10    27 1
    29    11    28 1
    30    17    29 1
    31    18    30 1
    32     4    31 1
    33    31    32 1
    34    32    33 2
    35    33    34 1
    36    34    35 2
    37    35    31 1
    38    34    36 1
    39    35    37 1
@<TRIPOS>SUBSTRUCTURE
     1 9GU         1 TEMP              0 ****  ****    0 ROOT
