@<TRIPOS>MOLECULE
9GV
   53    56     1     0     0
SMALL
bcc


@<TRIPOS>ATOM
      1 C6           0.0000     0.0000     0.0000 ca         1 9GV      -0.155500
      2 C7           1.3830     0.0000     0.0000 ca         1 9GV       0.005000
      3 C8           2.0730     0.0000     1.1980 ca         1 9GV      -0.117500
      4 C15          2.8420     4.0880     4.9330 ca         1 9GV       0.431200
      5 C17          3.7070     5.6450     6.4230 ca         1 9GV       0.660600
      6 C20          4.2060     4.6570     7.2760 ca         1 9GV      -0.346500
      7 C21          4.0000     3.3060     6.9390 ca         1 9GV      -0.159900
      8 C22          4.5940     2.5300     7.9500 cc         1 9GV       0.451800
      9 C26          5.3170     5.7830    10.5590 ca         1 9GV      -0.071000
     10 C28          6.1160     8.0410    10.5730 ca         1 9GV       0.108900
     11 F29          6.5120     9.1360    11.2580 f          1 9GV      -0.126900
     12 C27          5.7230     6.9040    11.2570 ca         1 9GV      -0.121500
     13 C30          6.1070     8.0570     9.1890 ca         1 9GV      -0.121500
     14 C31          5.7030     6.9390     8.4870 ca         1 9GV      -0.071000
     15 C25          5.3060     5.7970     9.1710 ca         1 9GV      -0.157200
     16 N24          4.8970     4.6610     8.4610 na         1 9GV       0.641800
     17 O18          3.8880     6.9500     6.7410 os         1 9GV      -0.433100
     18 C19          3.3570     7.9180     5.8340 c3         1 9GV       0.250700
     19 N16          3.0620     5.3300     5.3150 nb         1 9GV      -0.655000
     20 N23          5.1220     3.3300     8.8360 nd         1 9GV      -0.636100
     21 C14          3.2840     3.0120     5.6980 ca         1 9GV      -0.240900
     22 C12          3.0400     1.6250     5.2720 c          1 9GV       0.609700
     23 O13          3.4340     0.7010     5.9570 o          1 9GV      -0.653100
     24 N11          2.3770     1.3800     4.1240 ns         1 9GV      -0.200900
     25 C9           1.3810    -0.0010     2.3950 ca         1 9GV      -0.076300
     26 C32         -0.0010     0.0000     2.3940 ca         1 9GV      -0.117500
     27 C33         -0.6920     0.0060     1.1960 ca         1 9GV       0.005000
     28 S3          -0.8790    -0.0000    -1.5270 sy         1 9GV       1.041200
     29 O4          -2.1630     0.5440    -1.2500 o          1 9GV      -0.585800
     30 O5           0.0030     0.5440    -2.4990 o          1 9GV      -0.585800
     31 N2          -1.1240    -1.5820    -1.9510 n7         1 9GV      -0.579100
     32 C1          -1.9730    -2.4410    -1.1210 c3         1 9GV       0.262100
     33 H1           1.9250    -0.0020    -0.9380 ha         1 9GV       0.125000
     34 H2           3.1570    -0.0000     1.1990 ha         1 9GV       0.115500
     35 H3           3.0800    -0.5120     3.5710 h1         1 9GV       0.032700
     36 H4           1.5480    -0.5130     4.4550 h1         1 9GV       0.032700
     37 H5           2.3050     3.9010     4.0110 h4         1 9GV      -0.020900
     38 H6           4.6150     1.4470     7.9850 h4         1 9GV       0.044800
     39 H7           5.0090     4.8930    11.0950 ha         1 9GV       0.134500
     40 H8           5.7310     6.8930    12.3400 ha         1 9GV       0.122000
     41 H9           6.4160     8.9480     8.6550 ha         1 9GV       0.122000
     42 H10          5.6950     6.9520     7.4040 ha         1 9GV       0.134500
     43 H11          2.2800     7.8100     5.7800 h1         1 9GV       0.004700
     44 H12          3.6030     8.9130     6.1830 h1         1 9GV       0.004700
     45 H13          3.7850     7.7640     4.8510 h1         1 9GV       0.004700
     46 H14          2.0850     2.1400     3.5430 hn         1 9GV       0.183500
     47 H15         -0.5440     0.0020     3.3320 ha         1 9GV       0.115500
     48 H16         -1.7750     0.0060     1.1950 ha         1 9GV       0.125000
     49 H17         -0.7110    -1.9450    -2.7880 hn         1 9GV       0.348800
     50 H18         -2.7550    -1.8450    -0.6670 h1         1 9GV       0.001700
     51 H19         -1.3730    -2.9000    -0.3450 h1         1 9GV       0.001700
     52 H20         -2.4190    -3.2120    -1.7380 h1         1 9GV       0.001700
     53 C10          2.1340    -0.0020     3.7010 c3         1 9GV       0.107300
@<TRIPOS>BOND
     1     1     2 ar  
     2     1    27 ar  
     3     1    28 1   
     4     2     3 ar  
     5     2    33 1   
     6     3    25 ar  
     7     3    34 1   
     8     4    19 ar  
     9     4    21 ar  
    10     4    37 1   
    11     5     6 ar  
    12     5    17 1   
    13     5    19 ar  
    14     6     7 ar  
    15     6    16 1   
    16     7     8 1   
    17     7    21 ar  
    18     8    20 2   
    19     8    38 1   
    20     9    12 ar  
    21     9    15 ar  
    22     9    39 1   
    23    10    11 1   
    24    10    12 ar  
    25    10    13 ar  
    26    12    40 1   
    27    13    14 ar  
    28    13    41 1   
    29    14    15 ar  
    30    14    42 1   
    31    15    16 1   
    32    16    20 1   
    33    17    18 1   
    34    18    43 1   
    35    18    44 1   
    36    18    45 1   
    37    21    22 1   
    38    22    23 2   
    39    22    24 1   
    40    24    46 1   
    41    24    53 1   
    42    25    26 ar  
    43    25    53 1   
    44    26    27 ar  
    45    26    47 1   
    46    27    48 1   
    47    28    29 2   
    48    28    30 2   
    49    28    31 1   
    50    31    32 1   
    51    31    49 1   
    52    32    50 1   
    53    32    51 1   
    54    32    52 1   
    55    35    53 1   
    56    36    53 1   
@<TRIPOS>SUBSTRUCTURE
     1 9GV         1 TEMP              0 ****  ****    0 ROOT
