@<TRIPOS>MOLECULE
molecule
   33    34     1     0     0
SMALL
bcc


@<TRIPOS>ATOM
      1 C10          0.0000     0.0000     0.0000 c3         1 9GW      -0.091100
      2 C17          7.0450    -1.0810    -0.6130 cc         1 9GW      -0.234000
      3 C01          3.3340    -0.0010     3.8110 ca         1 9GW      -0.151000
      4 N01          6.3610    -0.2620     1.3100 na         1 9GW      -0.000200
      5 O01          5.9920     0.0000     6.3340 oh         1 9GW      -0.455100
      6 C02          4.0860     0.0000     2.6550 ca         1 9GW       0.105100
      7 O02          3.4690     0.0000     1.4440 os         1 9GW      -0.331900
      8 C03          5.4810     0.0010     2.7280 ca         1 9GW       0.013800
      9 O03          3.7230    -0.0000     7.3770 o          1 9GW      -0.813800
     10 C04          6.1160     0.0010     3.9600 ca         1 9GW       0.011900
     11 O04          1.8230    -0.0010     6.2260 o          1 9GW      -0.813800
     12 C05          5.3690     0.0000     5.1270 ca         1 9GW       0.138100
     13 C06          3.9690    -0.0000     5.0590 ca         1 9GW      -0.072600
     14 C07          3.1690    -0.0000     6.2950 c          1 9GW       0.878200
     15 C08          2.0400     0.0000     1.4430 c3         1 9GW       0.136400
     16 C09          1.5300     0.0000     0.0000 c3         1 9GW      -0.084400
     17 C16          6.2580    -1.3220     0.4550 cd         1 9GW      -0.140300
     18 C18          7.6600     0.1720    -0.4110 cd         1 9GW      -0.234000
     19 C19          7.2230     0.6510     0.7710 cc         1 9GW      -0.140300
     20 I01          8.2090     0.0020     4.0580 i          1 9GW      -0.179900
     21 H1          -0.3610     0.8840     0.5110 hc         1 9GW       0.034700
     22 H2          -0.3610    -0.8850     0.5110 hc         1 9GW       0.034700
     23 H3          -0.3610     0.0000    -1.0210 hc         1 9GW       0.034700
     24 H5           2.2520    -0.0010     3.7540 ha         1 9GW       0.180000
     25 H6           6.5670    -0.7450     6.3910 ho         1 9GW       0.408000
     26 H8           1.6790     0.8840     1.9540 h1         1 9GW       0.043700
     27 H9           1.6790    -0.8850     1.9530 h1         1 9GW       0.043700
     28 H10          1.8910    -0.8850    -0.5110 hc         1 9GW       0.049700
     29 H11          1.8910     0.8850    -0.5110 hc         1 9GW       0.049700
     30 H12          5.5850    -2.1630     0.5650 h4         1 9GW       0.160000
     31 H13          8.3550     0.6610    -1.0830 ha         1 9GW       0.131000
     32 H14          7.4460     1.6300     1.1770 h4         1 9GW       0.160000
     33 H4           7.1820    -1.7310    -1.4680 ha         1 9GW       0.131000
@<TRIPOS>BOND
     1     1    16 1
     2    16    15 1
     3    15     7 1
     4     9    14 1
     5     7     6 1
     6     3     6 ar
     7     3    13 ar
     8    14    13 1
     9    14    11 1
    10     6     8 ar
    11    13    12 ar
    12     8     4 1
    13     8    10 ar
    14    12    10 ar
    15    12     5 1
    16     4    19 1
    17     4    17 1
    18    10    20 1
    19    19    18 2
    20    17     2 2
    21    18     2 1
    22     1    21 1
    23     1    22 1
    24     1    23 1
    25     2    33 1
    26     3    24 1
    27     5    25 1
    28    15    26 1
    29    15    27 1
    30    16    28 1
    31    16    29 1
    32    17    30 1
    33    18    31 1
    34    19    32 1
@<TRIPOS>SUBSTRUCTURE
     1 9GW         1 TEMP              0 ****  ****    0 ROOT
