@<TRIPOS>MOLECULE
molecule
   33    35     1     0     0
SMALL
bcc


@<TRIPOS>ATOM
      1 N1           0.0000     0.0000     0.0000 na         1 9GZ       0.025800
      2 C4          -1.6280    -1.0840    -1.4070 ca         1 9GZ      -0.021100
      3 C5          -2.4380    -1.0840    -2.5320 ca         1 9GZ       0.173100
      4 C6          -2.4320     0.0180    -3.4010 ca         1 9GZ      -0.113600
      5 C7          -3.2920     0.0200    -4.5960 c          1 9GZ       0.878200
      6 C8           1.3660     0.0000     0.0000 cc         1 9GZ      -0.141800
      7 C10          0.6410     0.0010     2.1030 cd         1 9GZ      -0.220000
      8 C13          0.9100     2.7810    -2.7020 ca         1 9GZ      -0.085500
      9 C15          1.7150     4.4320    -1.1640 ca         1 9GZ       0.115900
     10 C17          0.0640     2.8510    -0.4450 ca         1 9GZ      -0.085500
     11 C1          -1.6090     1.1140    -3.1300 ca         1 9GZ      -0.057000
     12 C11         -0.4380     0.0010     1.2950 cc         1 9GZ      -0.141800
     13 C12          0.0750     2.2690    -1.7110 cp         1 9GZ      -0.035000
     14 C14          1.7260     3.8590    -2.4250 ca         1 9GZ      -0.172500
     15 C16          0.8880     3.9260    -0.1750 ca         1 9GZ      -0.172500
     16 C2          -0.8000     1.1070    -2.0020 cp         1 9GZ      -0.081000
     17 C3          -0.8140     0.0040    -1.1350 ca         1 9GZ       0.011800
     18 C9           1.7870     0.0000     1.2810 cd         1 9GZ      -0.220000
     19 O1          -4.0080    -0.9340    -4.8310 o          1 9GZ      -0.815300
     20 O3          -3.2850     1.0790    -5.4290 o          1 9GZ      -0.815300
     21 H1           2.0010    -0.0010    -0.8770 h4         1 9GZ       0.168000
     22 H2           0.6300     0.0020     3.1870 ha         1 9GZ       0.137000
     23 H3           0.9200     2.3330    -3.6880 ha         1 9GZ       0.149000
     24 H4          -0.5830     2.4560     0.3290 ha         1 9GZ       0.149000
     25 H5          -1.8610     2.0090    -3.6850 ha         1 9GZ       0.185000
     26 H6          -1.4720     0.0020     1.6160 h4         1 9GZ       0.168000
     27 H7           2.3750     4.2580    -3.1950 ha         1 9GZ       0.137000
     28 H8           0.8820     4.3780     0.8090 ha         1 9GZ       0.137000
     29 H9           2.8170    -0.0000     1.6170 ha         1 9GZ       0.137000
     30 H10         -2.7110    -2.9300    -2.8460 ho         1 9GZ       0.411000
     31 I1          -1.6390    -2.7300    -0.1120 i          1 9GZ      -0.191900
     32 O2          -3.2360    -2.1490    -2.7920 oh         1 9GZ      -0.459100
     33 F1           2.5170     5.4870    -0.8960 f          1 9GZ      -0.156900
@<TRIPOS>BOND
     1    33     9 1
     2     9    14 ar
     3     9    15 ar
     4    14     8 ar
     5    15    10 ar
     6     8    13 ar
     7    19     5 1
     8    10    13 ar
     9    13    16 1
    10    11    16 ar
    11    11     4 ar
    12     5     4 1
    13     5    20 1
    14    16    17 ar
    15     4     3 ar
    16    17     1 1
    17    17     2 ar
    18     3     2 ar
    19     3    32 1
    20     1    12 1
    21     1     6 1
    22     2    31 1
    23    12     7 2
    24     6    18 2
    25     7    18 1
    26     6    21 1
    27     7    22 1
    28     8    23 1
    29    10    24 1
    30    11    25 1
    31    12    26 1
    32    14    27 1
    33    15    28 1
    34    18    29 1
    35    32    30 1
@<TRIPOS>SUBSTRUCTURE
     1 9GZ         1 TEMP              0 ****  ****    0 ROOT
