@<TRIPOS>MOLECULE
molecule
   25    26     1     0     0
SMALL
bcc


@<TRIPOS>ATOM
      1 C1           0.0000     0.0000     0.0000 ca         1 9H2      -0.107300
      2 C2           1.3820     0.0000     0.0000 ca         1 9H2      -0.035000
      3 C3           2.0750     0.0000     1.1960 ca         1 9H2       0.023900
      4 C4           1.3840     0.0020     2.4010 ca         1 9H2       0.074800
      5 C5          -0.0030     0.0030     2.4020 ca         1 9H2      -0.014100
      6 C6          -0.6960     0.0020     1.2000 ca         1 9H2       0.163100
      7 N1           2.0870     0.0020     3.6140 na         1 9H2      -0.002200
      8 C7           2.0840    -1.0060     4.5350 cc         1 9H2      -0.143800
      9 C8           2.8760    -0.6380     5.5630 cd         1 9H2      -0.195000
     10 C9           3.3870     0.6410     5.2680 cd         1 9H2      -0.195000
     11 C10          2.8930     1.0070     4.0670 cc         1 9H2      -0.143800
     12 I1          -1.0510     0.0040     4.2160 i          1 9H2      -0.124900
     13 I2           4.1700    -0.0010     1.1910 i          1 9H2      -0.128900
     14 C11         -0.7520     0.0060    -1.3060 c3         1 9H2       0.195700
     15 O1           0.1780     0.0030    -2.3920 oh         1 9H2      -0.616800
     16 O2          -2.0540     0.0020     1.1980 oh         1 9H2      -0.505100
     17 H1           1.9230    -0.0020    -0.9390 ha         1 9H2       0.178000
     18 H2           1.5400    -1.9390     4.4550 h4         1 9H2       0.171500
     19 H3           3.0800    -1.2200     6.4540 ha         1 9H2       0.150500
     20 H4           4.0580     1.2220     5.8880 ha         1 9H2       0.150500
     21 H5           3.0950     1.9400     3.5540 h4         1 9H2       0.171500
     22 H6          -1.3790    -0.8760    -1.3660 h1         1 9H2       0.043200
     23 H7          -1.3700     0.8930    -1.3630 h1         1 9H2       0.043200
     24 H8          -0.2930     0.0060    -3.2090 ho         1 9H2       0.412000
     25 H9          -2.3700    -0.7540     1.6650 ho         1 9H2       0.434000
@<TRIPOS>BOND
     1    15    14 1
     2    13     3 1
     3     2     3 ar
     4     2     1 ar
     5    14     1 1
     6     3     4 ar
     7     1     6 ar
     8     4     7 1
     9     4     5 ar
    10     6     5 ar
    11     6    16 1
    12     7    11 1
    13     7     8 1
    14     5    12 1
    15    11    10 2
    16     8     9 2
    17    10     9 1
    18     2    17 1
    19     8    18 1
    20     9    19 1
    21    10    20 1
    22    11    21 1
    23    14    22 1
    24    14    23 1
    25    15    24 1
    26    16    25 1
@<TRIPOS>SUBSTRUCTURE
     1 9H2         1 TEMP              0 ****  ****    0 ROOT
