@<TRIPOS>MOLECULE
molecule
   40    42     1     0     0
SMALL
bcc


@<TRIPOS>ATOM
      1 N1           0.0000     0.0000     0.0000 na         1 9H5      -0.008200
      2 N3          -2.5070    -2.4910    -7.7010 n3         1 9H5      -0.733600
      3 C4          -0.8160     0.0060    -1.1350 ca         1 9H5       0.093800
      4 C5          -0.8020     1.0980    -1.9930 ca         1 9H5      -0.027100
      5 C6          -1.6090     1.1050    -3.1170 ca         1 9H5       0.210100
      6 C7           1.3660     0.0000     0.0000 cc         1 9H5      -0.143800
      7 C8           1.7880     0.0000     1.2810 cd         1 9H5      -0.193000
      8 C10         -0.4360     0.0000     1.2950 cc         1 9H5      -0.143800
      9 C13         -3.3820    -1.3230    -7.8680 c3         1 9H5       0.145300
     10 C15         -2.2460    -2.0860    -5.2990 c3         1 9H5       0.106000
     11 C12         -4.1850    -1.1020    -6.5820 c3         1 9H5       0.106000
     12 C16         -1.8470    -2.8400    -8.9660 c3         1 9H5       0.153100
     13 C14         -1.5190    -2.2680    -6.6360 c3         1 9H5       0.145300
     14 N2          -3.2460    -1.0180    -5.4540 n          1 9H5      -0.486800
     15 O2          -4.0620     0.9360    -4.7820 o          1 9H5      -0.590100
     16 C1          -2.4390     0.0080    -3.3870 ca         1 9H5      -0.162600
     17 I2           0.4420     2.7330    -1.5830 i          1 9H5      -0.115900
     18 O1          -1.5960     2.1720    -3.9560 oh         1 9H5      -0.488100
     19 C2          -2.4460    -1.0880    -2.5180 ca         1 9H5      -0.040000
     20 C3          -1.6370    -1.0870    -1.4050 ca         1 9H5       0.012900
     21 I1          -1.6490    -2.7290    -0.1040 i          1 9H5      -0.123900
     22 C9           0.6430     0.0010     2.1030 cd         1 9H5      -0.193000
     23 H2           2.0010    -0.0010    -0.8780 h4         1 9H5       0.172500
     24 H3           2.8180     0.0000     1.6160 ha         1 9H5       0.153000
     25 H4          -1.4710     0.0010     1.6170 h4         1 9H5       0.172500
     26 H5          -2.7780    -0.4470    -8.0710 h1         1 9H5       0.044950
     27 H6          -4.0620    -1.4980    -8.6930 h1         1 9H5       0.044950
     28 H7          -2.7400    -3.0100    -5.0260 h1         1 9H5       0.063200
     29 H8          -1.5330    -1.8080    -4.5330 h1         1 9H5       0.063200
     30 H9          -4.8630    -1.9330    -6.4300 h1         1 9H5       0.063200
     31 H10         -4.7450    -0.1770    -6.6580 h1         1 9H5       0.063200
     32 H11         -2.5970    -3.0350    -9.7230 h1         1 9H5       0.034367
     33 H12         -1.2180    -2.0170    -9.2840 h1         1 9H5       0.034367
     34 H13         -1.2380    -3.7250    -8.8230 h1         1 9H5       0.034367
     35 H14         -0.9450    -1.3760    -6.8580 h1         1 9H5       0.044950
     36 H15         -0.8580    -3.1230    -6.5730 h1         1 9H5       0.044950
     37 H16         -1.8100     2.9540    -3.4730 ho         1 9H5       0.444000
     38 H17         -3.0850    -1.9380    -2.7230 ha         1 9H5       0.162000
     39 H18          0.6320     0.0010     3.1860 ha         1 9H5       0.153000
     40 C11         -3.3020     0.0080    -4.5820 c          1 9H5       0.686700
@<TRIPOS>BOND
     1    21    20 1
     2    11    14 1
     3    11     9 1
     4    15    40 2
     5    19    20 ar
     6    19    16 ar
     7    14    40 1
     8    14    10 1
     9    40    16 1
    10    10    13 1
    11     9     2 1
    12     2    13 1
    13     2    12 1
    14    20     3 ar
    15    16     5 ar
    16     3     1 1
    17     3     4 ar
    18     5     4 ar
    19     5    18 1
    20     1     8 1
    21     1     6 1
    22     4    17 1
    23     8    22 2
    24     6     7 2
    25    22     7 1
    26     6    23 1
    27     7    24 1
    28     8    25 1
    29     9    26 1
    30     9    27 1
    31    10    28 1
    32    10    29 1
    33    11    30 1
    34    11    31 1
    35    12    32 1
    36    12    33 1
    37    12    34 1
    38    13    35 1
    39    13    36 1
    40    18    37 1
    41    19    38 1
    42    22    39 1
@<TRIPOS>SUBSTRUCTURE
     1 9H5         1 TEMP              0 ****  ****    0 ROOT
