@<TRIPOS>MOLECULE
9H5
   40    42     1     0     0
SMALL
bcc


@<TRIPOS>ATOM
      1 N1           0.0000     0.0000     0.0000 na         1 9H5       0.537800
      2 N3          -2.5070    -2.4910    -7.7010 n3         1 9H5      -0.546600
      3 C4          -0.8160     0.0060    -1.1350 ca         1 9H5      -0.095200
      4 C5          -0.8020     1.0980    -1.9930 ca         1 9H5       0.090900
      5 C6          -1.6090     1.1050    -3.1170 ca         1 9H5       0.215100
      6 C7           1.3660     0.0000     0.0000 cc         1 9H5      -0.321800
      7 C8           1.7880     0.0000     1.2810 cd         1 9H5      -0.167000
      8 C10         -0.4360     0.0000     1.2950 cc         1 9H5      -0.321800
      9 C13         -3.3820    -1.3230    -7.8680 c3         1 9H5       0.138300
     10 C15         -2.2460    -2.0860    -5.2990 c3         1 9H5       0.044000
     11 C12         -4.1850    -1.1020    -6.5820 c3         1 9H5       0.044000
     12 C16         -1.8470    -2.8400    -8.9660 c3         1 9H5       0.189100
     13 C14         -1.5190    -2.2680    -6.6360 c3         1 9H5       0.138300
     14 N2          -3.2460    -1.0180    -5.4540 n          1 9H5      -0.148800
     15 O2          -4.0620     0.9360    -4.7820 o          1 9H5      -0.633100
     16 C1          -2.4390     0.0080    -3.3870 ca         1 9H5      -0.164600
     17 I2           0.4420     2.7330    -1.5830 i          1 9H5      -0.196900
     18 O1          -1.5960     2.1720    -3.9560 oh         1 9H5      -0.471100
     19 C2          -2.4460    -1.0880    -2.5180 ca         1 9H5      -0.035000
     20 C3          -1.6370    -1.0870    -1.4050 ca         1 9H5       0.145900
     21 I1          -1.6490    -2.7290    -0.1040 i          1 9H5      -0.219900
     22 C9           0.6430     0.0010     2.1030 cd         1 9H5      -0.167000
     23 H2           2.0010    -0.0010    -0.8780 h4         1 9H5       0.149000
     24 H3           2.8180     0.0000     1.6160 ha         1 9H5       0.124000
     25 H4          -1.4710     0.0010     1.6170 h4         1 9H5       0.149000
     26 H5          -2.7780    -0.4470    -8.0710 h1         1 9H5       0.018200
     27 H6          -4.0620    -1.4980    -8.6930 h1         1 9H5       0.018200
     28 H7          -2.7400    -3.0100    -5.0260 h1         1 9H5       0.036700
     29 H8          -1.5330    -1.8080    -4.5330 h1         1 9H5       0.036700
     30 H9          -4.8630    -1.9330    -6.4300 h1         1 9H5       0.036700
     31 H10         -4.7450    -0.1770    -6.6580 h1         1 9H5       0.036700
     32 H11         -2.5970    -3.0350    -9.7230 h1         1 9H5       0.002367
     33 H12         -1.2180    -2.0170    -9.2840 h1         1 9H5       0.002367
     34 H13         -1.2380    -3.7250    -8.8230 h1         1 9H5       0.002367
     35 H14         -0.9450    -1.3760    -6.8580 h1         1 9H5       0.018200
     36 H15         -0.8580    -3.1230    -6.5730 h1         1 9H5       0.018200
     37 H16         -1.8100     2.9540    -3.4730 ho         1 9H5       0.422000
     38 H17         -3.0850    -1.9380    -2.7230 ha         1 9H5       0.130000
     39 H18          0.6320     0.0010     3.1860 ha         1 9H5       0.124000
     40 C11         -3.3020     0.0080    -4.5820 c          1 9H5       0.621700
@<TRIPOS>BOND
     1     1     3 1   
     2     1     6 1   
     3     1     8 1   
     4     2     9 1   
     5     2    12 1   
     6     2    13 1   
     7     3     4 ar  
     8     3    20 ar  
     9     4     5 ar  
    10     4    17 1   
    11     5    16 ar  
    12     5    18 1   
    13     6     7 2   
    14     6    23 1   
    15     7    22 1   
    16     7    24 1   
    17     8    22 2   
    18     8    25 1   
    19     9    11 1   
    20     9    26 1   
    21     9    27 1   
    22    10    13 1   
    23    10    14 1   
    24    10    28 1   
    25    10    29 1   
    26    11    14 1   
    27    11    30 1   
    28    11    31 1   
    29    12    32 1   
    30    12    33 1   
    31    12    34 1   
    32    13    35 1   
    33    13    36 1   
    34    14    40 1   
    35    15    40 2   
    36    16    19 ar  
    37    16    40 1   
    38    18    37 1   
    39    19    20 ar  
    40    19    38 1   
    41    20    21 1   
    42    22    39 1   
@<TRIPOS>SUBSTRUCTURE
     1 9H5         1 TEMP              0 ****  ****    0 ROOT
