@<TRIPOS>MOLECULE
molecule
   25    25     1     0     0
SMALL
bcc


@<TRIPOS>ATOM
      1 C1           0.0000     0.0000     0.0000 c3         1 9H8      -0.083400
      2 C2           1.5450     0.0000     0.0000 c3         1 9H8      -0.085400
      3 C3           1.9480     0.0000     1.4860 c3         1 9H8       0.142500
      4 N1           0.6970     0.0310     2.2750 n7         1 9H8      -0.798200
      5 C4          -0.3510    -0.5650     1.3990 c3         1 9H8       0.142800
      6 C5           2.7910     1.2380     1.7980 c3         1 9H8       0.237800
      7 N2           3.0480     1.3040     3.2380 n7         1 9H8      -0.886100
      8 S1           4.2270     2.3090     3.8240 s6         1 9H8       1.294900
      9 O1           4.2070     2.0910     5.2290 o          1 9H8      -0.568800
     10 O2           5.3760     1.9910     3.0490 o          1 9H8      -0.568800
     11 C6           3.6360     3.9780     3.4300 c3         1 9H8       0.512700
     12 F1           4.5640     4.9200     3.8850 f          1 9H8      -0.208967
     13 F2           3.4830     4.1030     2.0460 f          1 9H8      -0.208967
     14 F3           2.4040     4.1960     4.0570 f          1 9H8      -0.208967
     15 H1          -0.3810     1.0080    -0.1100 hc         1 9H8       0.056200
     16 H2          -0.3810    -0.6490    -0.7800 hc         1 9H8       0.056200
     17 H3           1.9200     0.8910    -0.4890 hc         1 9H8       0.053200
     18 H4           1.9200    -0.8910    -0.4890 hc         1 9H8       0.053200
     19 H5           2.5060    -0.9000     1.7160 h1         1 9H8       0.039700
     20 H6           0.8060    -0.5320     3.0950 hn         1 9H8       0.345800
     21 H8          -0.2820    -1.6460     1.4020 h1         1 9H8       0.045200
     22 H9          -1.3370    -0.2370     1.7070 h1         1 9H8       0.045200
     23 H10          3.7320     1.1780     1.2650 h1         1 9H8       0.061200
     24 H11          2.2550     2.1270     1.4860 h1         1 9H8       0.061200
     25 H12          2.5270     0.7260     3.8670 hn         1 9H8       0.470800
@<TRIPOS>BOND
     1    10     8 2
     2    12    11 1
     3     7     8 1
     4     7     6 1
     5    13    11 1
     6     3     4 1
     7     3     6 1
     8     3     2 1
     9     8    11 1
    10     8     9 2
    11     4     5 1
    12    11    14 1
    13     2     1 1
    14     5     1 1
    15     1    15 1
    16     1    16 1
    17     2    17 1
    18     2    18 1
    19     3    19 1
    20     4    20 1
    21     5    21 1
    22     5    22 1
    23     6    23 1
    24     6    24 1
    25     7    25 1
@<TRIPOS>SUBSTRUCTURE
     1 9H8         1 TEMP              0 ****  ****    0 ROOT
