@<TRIPOS>MOLECULE
molecule
   20    19     1     0     0
SMALL
bcc


@<TRIPOS>ATOM
      1 C10          0.0000     0.0000     0.0000 c3         1 9HB       0.139700
      2 C01          7.5680     0.0000     4.0150 c3         1 9HB       0.139700
      3 O02          6.1150     0.0000     4.0150 os         1 9HB      -0.425900
      4 C03          5.5060     0.0000     2.8200 c          1 9HB       0.630100
      5 O04          6.1640     0.0000     1.8060 o          1 9HB      -0.555000
      6 C05          4.0010     0.0000     2.7410 c3         1 9HB      -0.117400
      7 C06          3.5670     0.0000     1.2740 c3         1 9HB      -0.117400
      8 C07          2.0620     0.0000     1.1950 c          1 9HB       0.630100
      9 O08          1.4040     0.0000     2.2090 o          1 9HB      -0.555000
     10 O09          1.4530     0.0000     0.0000 os         1 9HB      -0.425900
     11 H1          -0.3610    -0.8850     0.5110 h1         1 9HB       0.050033
     12 H2          -0.3610     0.8850     0.5110 h1         1 9HB       0.050033
     13 H3          -0.3610    -0.0000    -1.0210 h1         1 9HB       0.050033
     14 H4           7.9290    -0.0000     5.0360 h1         1 9HB       0.050033
     15 H5           7.9290     0.8850     3.5040 h1         1 9HB       0.050033
     16 H6           7.9290    -0.8850     3.5040 h1         1 9HB       0.050033
     17 H7           3.6140     0.8850     3.2330 hc         1 9HB       0.088700
     18 H8           3.6140    -0.8850     3.2330 hc         1 9HB       0.088700
     19 H9           3.9540    -0.8850     0.7820 hc         1 9HB       0.088700
     20 H10          3.9540     0.8850     0.7820 hc         1 9HB       0.088700
@<TRIPOS>BOND
     1     1    10 1
     2     9     8 2
     3    10     8 1
     4     8     7 1
     5     7     6 1
     6     6     4 1
     7     4     3 1
     8     4     5 2
     9     3     2 1
    10     1    11 1
    11     1    12 1
    12     1    13 1
    13     2    14 1
    14     2    15 1
    15     2    16 1
    16     6    17 1
    17     6    18 1
    18     7    19 1
    19     7    20 1
@<TRIPOS>SUBSTRUCTURE
     1 9HB         1 TEMP              0 ****  ****    0 ROOT
