@<TRIPOS>MOLECULE
molecule
   40    41     1     0     0
SMALL
bcc


@<TRIPOS>ATOM
      1 Br           0.0000     0.0000     0.0000 br         1 9HC      -0.127100
      2 OAB          6.5530     0.0000     1.8920 o          1 9HC      -0.529100
      3 OAC          7.4590    -6.0230     7.7630 o          1 9HC      -0.900833
      4 OAD          7.3130     2.3870     6.0310 oh         1 9HC      -0.532100
      5 OAE          8.5460    -5.4400     5.5230 o          1 9HC      -0.900833
      6 OAF          5.9980    -5.4380     5.7470 o          1 9HC      -0.900833
      7 CAH          2.8460     0.0000     0.0000 ca         1 9HC      -0.122500
      8 CAI          1.8320     0.0000     2.1790 ca         1 9HC      -0.122500
      9 CAJ          4.0990     0.0000     0.5740 ca         1 9HC      -0.076000
     10 CAK          3.0780     0.0000     2.7680 ca         1 9HC      -0.076000
     11 CAL          7.4890    -1.1510     8.0550 ca         1 9HC       0.448200
     12 CAM          5.6920     0.0000     4.0890 c3         1 9HC      -0.171400
     13 CAN          7.1740     0.0010     4.4700 c3         1 9HC      -0.015100
     14 CAO          7.3040    -2.5110     5.9560 c3         1 9HC       0.250700
     15 NAP          7.5470    -0.0020     8.6980 nb         1 9HC      -0.707000
     16 OAQ          7.3860    -3.5760     6.9040 os         1 9HC      -0.575200
     17 CAR          5.5600    -0.0000     2.5880 c          1 9HC       0.578700
     18 CAS          1.7150    -0.0000     0.7980 ca         1 9HC       0.000100
     19 CAT          7.4910     1.1530     8.0620 ca         1 9HC       0.354600
     20 CAU          4.2260     0.0010     1.9680 ca         1 9HC      -0.146600
     21 CAV          7.3680    -1.1890     6.6790 ca         1 9HC      -0.152600
     22 CAW          7.3700     1.1950     6.6810 ca         1 9HC      -0.044200
     23 CAX          7.3060     0.0000     5.9720 ca         1 9HC      -0.103300
     24 PAY          7.3470    -5.1300     6.4810 p5         1 9HC       1.161900
     25 HAA          8.4780     2.9610     8.6000 hc         1 9HC       0.034033
     26 HAAA         7.5440     2.2180     9.9060 hc         1 9HC       0.034033
     27 HAAB         6.7120     3.0630     8.5920 hc         1 9HC       0.034033
     28 HOAD         8.1850     2.7330     5.9310 ho         1 9HC       0.399000
     29 HAH          2.7470    -0.0000    -1.0790 ha         1 9HC       0.138500
     30 HAI          0.9420    -0.0000     2.7970 ha         1 9HC       0.138500
     31 HAJ          4.9830     0.0000    -0.0510 ha         1 9HC       0.156500
     32 HAK          3.1690     0.0010     3.8480 ha         1 9HC       0.156500
     33 HAL          7.5380    -2.0780     8.6130 h4         1 9HC       0.084100
     34 HAM          5.2150     0.8850     4.4930 hc         1 9HC       0.080700
     35 HAMA         5.2150    -0.8840     4.4940 hc         1 9HC       0.080700
     36 HAN          7.6510    -0.8840     4.0650 hc         1 9HC       0.063700
     37 HANA         7.6510     0.8850     4.0660 hc         1 9HC       0.063700
     38 HAO          8.1310    -2.5820     5.2600 h1         1 9HC       0.036200
     39 HAOA         6.3680    -2.5810     5.4140 h1         1 9HC       0.036200
     40 CAA          7.5610     2.4390     8.8450 c3         1 9HC      -0.126400
@<TRIPOS>BOND
     1     1    18 1
     2    40    19 1
     3     2    17 2
     4     3    24 1
     5     4    22 1
     6     5    24 1
     7     6    24 1
     8     7     9 ar
     9     7    18 ar
    10     8    10 ar
    11     8    18 ar
    12     9    20 ar
    13    10    20 ar
    14    11    15 ar
    15    11    21 ar
    16    12    13 1
    17    12    17 1
    18    13    23 1
    19    14    16 1
    20    14    21 1
    21    15    19 ar
    22    16    24 1
    23    17    20 1
    24    19    22 ar
    25    21    23 ar
    26    22    23 ar
    27    40    25 1
    28    40    26 1
    29    40    27 1
    30     4    28 1
    31     7    29 1
    32     8    30 1
    33     9    31 1
    34    10    32 1
    35    11    33 1
    36    12    34 1
    37    12    35 1
    38    13    36 1
    39    13    37 1
    40    14    38 1
    41    14    39 1
@<TRIPOS>SUBSTRUCTURE
     1 9HC         1 TEMP              0 ****  ****    0 ROOT
