@<TRIPOS>MOLECULE
9HD
   82    86     1     0     0
SMALL
bcc


@<TRIPOS>ATOM
      1 C01          0.0000     0.0000     0.0000 c2         1 9HD      -0.214200
      2 C04          1.3170     0.0000     0.0000 c2         1 9HD      -0.137400
      3 N07          1.8450     0.0000     1.2780 n          1 9HD      -0.006000
      4 C08          0.8770    -0.0020     2.2160 c          1 9HD       0.618500
      5 C09         -0.4330     0.0050     1.4520 c3         1 9HD      -0.079200
      6 O12          1.0230    -0.0030     3.4200 o          1 9HD      -0.658500
      7 C13          3.2790    -0.0010     1.5760 c3         1 9HD       0.017700
      8 C15          3.9050    -1.3010     1.0660 c3         1 9HD      -0.077400
      9 C18          3.9440     1.1900     0.8840 c3         1 9HD      -0.082400
     10 C21          3.4070     2.4930     1.4830 c3         1 9HD       0.072000
     11 N24          4.0440     3.6340     0.8200 n          1 9HD      -0.174800
     12 C25          3.5620     4.2380    -0.2790 c          1 9HD       0.633500
     13 C26          4.4760     5.3690    -0.6950 c3         1 9HD      -0.112400
     14 C29          5.7920     5.0930     0.0700 c3         1 9HD      -0.032400
     15 C32          5.2860     4.2680     1.2750 c3         1 9HD       0.054000
     16 C35          5.3660    -1.3730     1.5180 c3         1 9HD       0.054700
     17 O37          2.5430     3.9220    -0.8550 o          1 9HD      -0.662500
     18 C38          6.0200    -2.6240     0.9250 c3         1 9HD      -0.090400
     19 C41          7.5110    -2.6320     1.2710 c3         1 9HD       0.063700
     20 N43          8.1710    -1.5000     0.6170 n          1 9HD      -0.182800
     21 C44          8.2040    -1.3080    -0.7140 c          1 9HD       0.641500
     22 C45          8.9770    -0.0480    -1.0380 c3         1 9HD      -0.114400
     23 C48          9.7570     0.2620     0.2610 c3         1 9HD      -0.032400
     24 C51          8.8770    -0.4280     1.3280 c3         1 9HD       0.049000
     25 O54          7.6900    -2.0370    -1.5340 o          1 9HD      -0.657500
     26 C55          8.1400    -3.9390     0.7870 c3         1 9HD      -0.086400
     27 C58          9.5980    -4.0030     1.2430 c3         1 9HD       0.074000
     28 N61         10.2010    -5.2550     0.7780 n          1 9HD      -0.173800
     29 C62         10.8280    -5.4040    -0.4010 c          1 9HD       0.634500
     30 C63         11.3170    -6.8280    -0.5550 c3         1 9HD      -0.112400
     31 C66         10.5300    -7.6160     0.5180 c3         1 9HD      -0.031400
     32 C69         10.2020    -6.5080     1.5440 c3         1 9HD       0.053000
     33 O72         10.9810    -4.5250    -1.2210 o          1 9HD      -0.665500
     34 C73          5.0940    -2.1500     5.1900 c3         1 9HD      -0.113400
     35 C76          4.8400    -2.4000     3.7190 c          1 9HD       0.641500
     36 O77          4.2020    -3.3290     3.2720 o          1 9HD      -0.666500
     37 N78          5.4230    -1.4400     2.9800 n          1 9HD      -0.178800
     38 C79          6.1240    -0.4680     3.8260 c3         1 9HD       0.046000
     39 C82          5.5610    -0.6780     5.2500 c3         1 9HD      -0.032400
     40 H1          -0.5420    -0.5960    -0.7250 ha         1 9HD       0.131000
     41 H2           1.8590    -0.4740    -0.8100 h4         1 9HD       0.133000
     42 H3          -0.9980     0.9020     1.6760 hc         1 9HD       0.055200
     43 H4          -1.0090    -0.8840     1.6790 hc         1 9HD       0.055200
     44 H5           3.4260     0.0750     2.6460 h1         1 9HD       0.062700
     45 H6           3.3600    -2.1460     1.4690 hc         1 9HD       0.052200
     46 H7           3.8600    -1.3240    -0.0160 hc         1 9HD       0.052200
     47 H8           3.7240     1.1620    -0.1760 hc         1 9HD       0.035200
     48 H9           5.0170     1.1410     1.0310 hc         1 9HD       0.035200
     49 H10          3.6280     2.5210     2.5430 h1         1 9HD       0.034700
     50 H11          2.3350     2.5420     1.3360 h1         1 9HD       0.034700
     51 H12          4.0580     6.3220    -0.3950 hc         1 9HD       0.044200
     52 H13          4.6480     5.3420    -1.7640 hc         1 9HD       0.044200
     53 H14          6.4750     4.5100    -0.5370 hc         1 9HD       0.026200
     54 H15          6.2470     6.0180     0.4000 hc         1 9HD       0.026200
     55 H16          6.0150     3.5120     1.5430 h1         1 9HD       0.013200
     56 H17          5.0870     4.9200     2.1170 h1         1 9HD       0.013200
     57 H18          5.8940    -0.4920     1.1750 h1         1 9HD       0.039700
     58 H19          5.9000    -2.6180    -0.1520 hc         1 9HD       0.065200
     59 H20          5.5490    -3.5080     1.3360 hc         1 9HD       0.065200
     60 H21          7.6320    -2.5490     2.3450 h1         1 9HD       0.029700
     61 H22          8.2980     0.7620    -1.2730 hc         1 9HD       0.045200
     62 H23          9.6640    -0.2270    -1.8570 hc         1 9HD       0.045200
     63 H24         10.7460    -0.1800     0.2320 hc         1 9HD       0.028200
     64 H25          9.8070     1.3310     0.4340 hc         1 9HD       0.028200
     65 H26          9.4980    -0.8450     2.1120 h1         1 9HD       0.012200
     66 H27          8.1670     0.2790     1.7400 h1         1 9HD       0.012200
     67 H28          8.0980    -3.9820    -0.2950 hc         1 9HD       0.051200
     68 H29          7.5950    -4.7780     1.2030 hc         1 9HD       0.051200
     69 H30         10.1440    -3.1640     0.8280 h1         1 9HD       0.024200
     70 H31          9.6410    -3.9620     2.3250 h1         1 9HD       0.024200
     71 H32         11.0840    -7.2020    -1.5450 hc         1 9HD       0.042700
     72 H33         12.3810    -6.8850    -0.3610 hc         1 9HD       0.042700
     73 H34          9.6220    -8.0350     0.1000 hc         1 9HD       0.027200
     74 H35         11.1500    -8.3840     0.9650 hc         1 9HD       0.027200
     75 H36          9.2260    -6.6800     1.9810 h1         1 9HD       0.015200
     76 H37         10.9640    -6.4740     2.3140 h1         1 9HD       0.015200
     77 H39          5.8730    -2.8090     5.5550 hc         1 9HD       0.045700
     78 H40          7.1900    -0.6620     3.8140 h1         1 9HD       0.013200
     79 H41          5.9170     0.5400     3.4880 h1         1 9HD       0.013200
     80 H42          6.3370    -0.5500     5.9940 hc         1 9HD       0.030200
     81 H43          4.7240    -0.0160     5.4340 hc         1 9HD       0.030200
     82 H38          4.1810    -2.2810     5.7580 hc         1 9HD       0.045700
@<TRIPOS>BOND
     1     1     2 2   
     2     1     5 1   
     3     1    40 1   
     4     2     3 1   
     5     2    41 1   
     6     3     4 1   
     7     3     7 1   
     8     4     5 1   
     9     4     6 2   
    10     5    42 1   
    11     5    43 1   
    12     7     8 1   
    13     7     9 1   
    14     7    44 1   
    15     8    16 1   
    16     8    45 1   
    17     8    46 1   
    18     9    10 1   
    19     9    47 1   
    20     9    48 1   
    21    10    11 1   
    22    10    49 1   
    23    10    50 1   
    24    11    12 1   
    25    11    15 1   
    26    12    13 1   
    27    12    17 2   
    28    13    14 1   
    29    13    51 1   
    30    13    52 1   
    31    14    15 1   
    32    14    53 1   
    33    14    54 1   
    34    15    55 1   
    35    15    56 1   
    36    16    18 1   
    37    16    37 1   
    38    16    57 1   
    39    18    19 1   
    40    18    58 1   
    41    18    59 1   
    42    19    20 1   
    43    19    26 1   
    44    19    60 1   
    45    20    21 1   
    46    20    24 1   
    47    21    22 1   
    48    21    25 2   
    49    22    23 1   
    50    22    61 1   
    51    22    62 1   
    52    23    24 1   
    53    23    63 1   
    54    23    64 1   
    55    24    65 1   
    56    24    66 1   
    57    26    27 1   
    58    26    67 1   
    59    26    68 1   
    60    27    28 1   
    61    27    69 1   
    62    27    70 1   
    63    28    29 1   
    64    28    32 1   
    65    29    30 1   
    66    29    33 2   
    67    30    31 1   
    68    30    71 1   
    69    30    72 1   
    70    31    32 1   
    71    31    73 1   
    72    31    74 1   
    73    32    75 1   
    74    32    76 1   
    75    34    35 1   
    76    34    39 1   
    77    34    77 1   
    78    34    82 1   
    79    35    36 2   
    80    35    37 1   
    81    37    38 1   
    82    38    39 1   
    83    38    78 1   
    84    38    79 1   
    85    39    80 1   
    86    39    81 1   
@<TRIPOS>SUBSTRUCTURE
     1 9HD         1 TEMP              0 ****  ****    0 ROOT
