@<TRIPOS>MOLECULE
molecule
   82    86     1     0     0
SMALL
bcc


@<TRIPOS>ATOM
      1 C01          0.0000     0.0000     0.0000 c2         1 9HD      -0.253200
      2 C04          1.3170     0.0000     0.0000 c2         1 9HD      -0.022400
      3 N07          1.8450     0.0000     1.2780 n          1 9HD      -0.388000
      4 C08          0.8770    -0.0020     2.2160 c          1 9HD       0.699500
      5 C09         -0.4330     0.0050     1.4520 c3         1 9HD      -0.143200
      6 O12          1.0230    -0.0030     3.4200 o          1 9HD      -0.616500
      7 C13          3.2790    -0.0010     1.5760 c3         1 9HD       0.113700
      8 C15          3.9050    -1.3010     1.0660 c3         1 9HD      -0.114400
      9 C18          3.9440     1.1900     0.8840 c3         1 9HD      -0.122400
     10 C21          3.4070     2.4930     1.4830 c3         1 9HD       0.124000
     11 N24          4.0440     3.6340     0.8200 n          1 9HD      -0.500800
     12 C25          3.5620     4.2380    -0.2790 c          1 9HD       0.701500
     13 C26          4.4760     5.3690    -0.6950 c3         1 9HD      -0.169400
     14 C29          5.7920     5.0930     0.0700 c3         1 9HD      -0.099400
     15 C32          5.2860     4.2680     1.2750 c3         1 9HD       0.097000
     16 C35          5.3660    -1.3730     1.5180 c3         1 9HD       0.134700
     17 O37          2.5430     3.9220    -0.8550 o          1 9HD      -0.623500
     18 C38          6.0200    -2.6240     0.9250 c3         1 9HD      -0.117400
     19 C41          7.5110    -2.6320     1.2710 c3         1 9HD       0.137700
     20 N43          8.1710    -1.5000     0.6170 n          1 9HD      -0.505800
     21 C44          8.2040    -1.3080    -0.7140 c          1 9HD       0.706500
     22 C45          8.9770    -0.0480    -1.0380 c3         1 9HD      -0.170400
     23 C48          9.7570     0.2620     0.2610 c3         1 9HD      -0.098400
     24 C51          8.8770    -0.4280     1.3280 c3         1 9HD       0.096000
     25 O54          7.6900    -2.0370    -1.5340 o          1 9HD      -0.622500
     26 C55          8.1400    -3.9390     0.7870 c3         1 9HD      -0.124400
     27 C58          9.5980    -4.0030     1.2430 c3         1 9HD       0.126000
     28 N61         10.2010    -5.2550     0.7780 n          1 9HD      -0.500800
     29 C62         10.8280    -5.4040    -0.4010 c          1 9HD       0.702500
     30 C63         11.3170    -6.8280    -0.5550 c3         1 9HD      -0.169400
     31 C66         10.5300    -7.6160     0.5180 c3         1 9HD      -0.098400
     32 C69         10.2020    -6.5080     1.5440 c3         1 9HD       0.096000
     33 O72         10.9810    -4.5250    -1.2210 o          1 9HD      -0.626500
     34 C73          5.0940    -2.1500     5.1900 c3         1 9HD      -0.169400
     35 C76          4.8400    -2.4000     3.7190 c          1 9HD       0.705500
     36 O77          4.2020    -3.3290     3.2720 o          1 9HD      -0.629500
     37 N78          5.4230    -1.4400     2.9800 n          1 9HD      -0.503800
     38 C79          6.1240    -0.4680     3.8260 c3         1 9HD       0.094000
     39 C82          5.5610    -0.6780     5.2500 c3         1 9HD      -0.098400
     40 H1          -0.5420    -0.5960    -0.7250 ha         1 9HD       0.157000
     41 H2           1.8590    -0.4740    -0.8100 h4         1 9HD       0.161000
     42 H3          -0.9980     0.9020     1.6760 hc         1 9HD       0.089200
     43 H4          -1.0090    -0.8840     1.6790 hc         1 9HD       0.089200
     44 H5           3.4260     0.0750     2.6460 h1         1 9HD       0.087700
     45 H6           3.3600    -2.1460     1.4690 hc         1 9HD       0.074200
     46 H7           3.8600    -1.3240    -0.0160 hc         1 9HD       0.074200
     47 H8           3.7240     1.1620    -0.1760 hc         1 9HD       0.057700
     48 H9           5.0170     1.1410     1.0310 hc         1 9HD       0.057700
     49 H10          3.6280     2.5210     2.5430 h1         1 9HD       0.064200
     50 H11          2.3350     2.5420     1.3360 h1         1 9HD       0.064200
     51 H12          4.0580     6.3220    -0.3950 hc         1 9HD       0.077700
     52 H13          4.6480     5.3420    -1.7640 hc         1 9HD       0.077700
     53 H14          6.4750     4.5100    -0.5370 hc         1 9HD       0.057700
     54 H15          6.2470     6.0180     0.4000 hc         1 9HD       0.057700
     55 H16          6.0150     3.5120     1.5430 h1         1 9HD       0.042700
     56 H17          5.0870     4.9200     2.1170 h1         1 9HD       0.042700
     57 H18          5.8940    -0.4920     1.1750 h1         1 9HD       0.062700
     58 H19          5.9000    -2.6180    -0.1520 hc         1 9HD       0.084700
     59 H20          5.5490    -3.5080     1.3360 hc         1 9HD       0.084700
     60 H21          7.6320    -2.5490     2.3450 h1         1 9HD       0.056700
     61 H22          8.2980     0.7620    -1.2730 hc         1 9HD       0.078700
     62 H23          9.6640    -0.2270    -1.8570 hc         1 9HD       0.078700
     63 H24         10.7460    -0.1800     0.2320 hc         1 9HD       0.060200
     64 H25          9.8070     1.3310     0.4340 hc         1 9HD       0.060200
     65 H26          9.4980    -0.8450     2.1120 h1         1 9HD       0.040200
     66 H27          8.1670     0.2790     1.7400 h1         1 9HD       0.040200
     67 H28          8.0980    -3.9820    -0.2950 hc         1 9HD       0.074200
     68 H29          7.5950    -4.7780     1.2030 hc         1 9HD       0.074200
     69 H30         10.1440    -3.1640     0.8280 h1         1 9HD       0.053700
     70 H31          9.6410    -3.9620     2.3250 h1         1 9HD       0.053700
     71 H32         11.0840    -7.2020    -1.5450 hc         1 9HD       0.076700
     72 H33         12.3810    -6.8850    -0.3610 hc         1 9HD       0.076700
     73 H34          9.6220    -8.0350     0.1000 hc         1 9HD       0.058700
     74 H35         11.1500    -8.3840     0.9650 hc         1 9HD       0.058700
     75 H36          9.2260    -6.6800     1.9810 h1         1 9HD       0.045200
     76 H37         10.9640    -6.4740     2.3140 h1         1 9HD       0.045200
     77 H39          5.8730    -2.8090     5.5550 hc         1 9HD       0.078700
     78 H40          7.1900    -0.6620     3.8140 h1         1 9HD       0.040700
     79 H41          5.9170     0.5400     3.4880 h1         1 9HD       0.040700
     80 H42          6.3370    -0.5500     5.9940 hc         1 9HD       0.061700
     81 H43          4.7240    -0.0160     5.4340 hc         1 9HD       0.061700
     82 H38          4.1810    -2.2810     5.7580 hc         1 9HD       0.078700
@<TRIPOS>BOND
     1    32    31 1
     2    32    28 1
     3    31    30 1
     4    27    28 1
     5    27    26 1
     6    28    29 1
     7    30    29 1
     8    26    19 1
     9    29    33 2
    10    10     9 1
    11    10    11 1
    12     9     7 1
    13    36    35 2
    14    19    20 1
    15    19    18 1
    16    11    12 1
    17    11    15 1
    18    17    12 2
    19    25    21 2
    20    12    13 1
    21    16    18 1
    22    16     8 1
    23    16    37 1
    24    15    14 1
    25    20    21 1
    26    20    24 1
    27    35    37 1
    28    35    34 1
    29    21    22 1
    30     6     4 2
    31     7     8 1
    32     7     3 1
    33    37    38 1
    34    24    23 1
    35    13    14 1
    36    22    23 1
    37     4     3 1
    38     4     5 1
    39    34    39 1
    40     3     2 1
    41    38    39 1
    42     5     1 1
    43     2     1 2
    44     1    40 1
    45     2    41 1
    46     5    42 1
    47     5    43 1
    48     7    44 1
    49     8    45 1
    50     8    46 1
    51     9    47 1
    52     9    48 1
    53    10    49 1
    54    10    50 1
    55    13    51 1
    56    13    52 1
    57    14    53 1
    58    14    54 1
    59    15    55 1
    60    15    56 1
    61    16    57 1
    62    18    58 1
    63    18    59 1
    64    19    60 1
    65    22    61 1
    66    22    62 1
    67    23    63 1
    68    23    64 1
    69    24    65 1
    70    24    66 1
    71    26    67 1
    72    26    68 1
    73    27    69 1
    74    27    70 1
    75    30    71 1
    76    30    72 1
    77    31    73 1
    78    31    74 1
    79    32    75 1
    80    32    76 1
    81    34    82 1
    82    34    77 1
    83    38    78 1
    84    38    79 1
    85    39    80 1
    86    39    81 1
@<TRIPOS>SUBSTRUCTURE
     1 9HD         1 TEMP              0 ****  ****    0 ROOT
