@<TRIPOS>MOLECULE
9HE
   41    45     1     0     0
SMALL
bcc


@<TRIPOS>ATOM
      1 CAI          0.0000     0.0000     0.0000 c3         1 9HE      -0.040400
      2 CAG          1.5390     0.0000     0.0000 c3         1 9HE      -0.020400
      3 CAH          1.9790     0.0000     1.4780 c3         1 9HE      -0.020400
      4 CAJ          0.7700    -0.6010     2.2350 c3         1 9HE      -0.040400
      5 CAW         -0.4420    -0.0010     1.4780 c3         1 9HE      -0.036000
      6 NAX         -1.6280    -0.8400     1.6600 na         1 9HE       0.389200
      7 NAN         -1.7320    -2.1850     1.2860 nc         1 9HE      -0.625100
      8 C4          -2.8010    -0.4350     2.2240 ca         1 9HE       0.345800
      9 N3          -3.2390     0.7100     2.7470 nb         1 9HE      -0.692000
     10 C2          -4.4570     0.8030     3.2320 ca         1 9HE       0.706900
     11 N1          -5.3040    -0.2110     3.2340 nb         1 9HE      -0.742000
     12 C6          -4.9600    -1.3940     2.7360 ca         1 9HE       0.614200
     13 NAA         -5.8500    -2.4510     2.7400 nv         1 9HE      -0.550500
     14 C5          -3.6680    -1.5440     2.2040 ca         1 9HE      -0.550500
     15 CAR         -2.9240    -2.6410     1.5870 cd         1 9HE       0.497500
     16 CAP         -3.4240    -4.0170     1.3490 ca         1 9HE      -0.256200
     17 CAF         -4.6990    -4.2240     0.8250 ca         1 9HE      -0.019000
     18 CAS         -5.1160    -5.5390     0.6220 ca         1 9HE      -0.228100
     19 CAD         -6.3420    -6.1530     0.1070 cc         1 9HE      -0.152200
     20 CAB         -6.1590    -7.4810     0.1500 cd         1 9HE      -0.262100
     21 NAO         -4.9170    -7.7660     0.6490 na         1 9HE       0.263900
     22 CAT         -4.2520    -6.6020     0.9480 ca         1 9HE       0.234800
     23 NAM         -3.0470    -6.3500     1.4460 nb         1 9HE      -0.578000
     24 CAE         -2.6210    -5.1230     1.6450 ca         1 9HE       0.443200
     25 H1          -0.3690    -0.8890    -0.4960 hc         1 9HE       0.029450
     26 H2          -0.3700     0.8890    -0.4960 hc         1 9HE       0.029450
     27 H3           1.9090    -0.8890    -0.4960 hc         1 9HE       0.016200
     28 H4           1.9090     0.8890    -0.4960 hc         1 9HE       0.016200
     29 H5           2.8550    -0.6230     1.6110 hc         1 9HE       0.016200
     30 H6           2.1700     1.0120     1.8150 hc         1 9HE       0.016200
     31 H7           0.7700    -1.6820     2.1590 hc         1 9HE       0.029450
     32 H8           0.7700    -0.2820     3.2700 hc         1 9HE       0.029450
     33 H9          -0.6310     1.0120     1.8140 h1         1 9HE       0.063700
     34 H10         -4.7790     1.7500     3.6490 h5         1 9HE      -0.005900
     35 H11         -5.5190    -3.3830     2.8910 hn         1 9HE       0.284800
     36 H12         -6.8290    -2.2810     2.6160 hn         1 9HE       0.284800
     37 H13         -5.4250    -3.4200     0.8340 ha         1 9HE       0.123000
     38 H14         -7.2270    -5.6340    -0.2410 ha         1 9HE       0.131000
     39 H15         -6.8870    -8.2200    -0.1650 h4         1 9HE       0.143000
     40 H16         -4.5470    -8.6870     0.7780 hn         1 9HE       0.120700
     41 H17         -1.6270    -4.9640     2.0450 h4         1 9HE      -0.008900
@<TRIPOS>BOND
     1     1     2 1   
     2     1     5 1   
     3     1    25 1   
     4     1    26 1   
     5     2     3 1   
     6     2    27 1   
     7     2    28 1   
     8     3     4 1   
     9     3    29 1   
    10     3    30 1   
    11     4     5 1   
    12     4    31 1   
    13     4    32 1   
    14     5     6 1   
    15     5    33 1   
    16     6     7 1   
    17     6     8 1   
    18     7    15 2   
    19     8     9 ar  
    20     8    14 ar  
    21     9    10 ar  
    22    10    11 ar  
    23    10    34 1   
    24    11    12 ar  
    25    12    13 1   
    26    12    14 ar  
    27    13    35 1   
    28    13    36 1   
    29    14    15 1   
    30    15    16 1   
    31    16    17 ar  
    32    16    24 ar  
    33    17    18 ar  
    34    17    37 1   
    35    18    19 1   
    36    18    22 ar  
    37    19    20 2   
    38    19    38 1   
    39    20    21 1   
    40    20    39 1   
    41    21    22 1   
    42    21    40 1   
    43    22    23 ar  
    44    23    24 ar  
    45    24    41 1   
@<TRIPOS>SUBSTRUCTURE
     1 9HE         1 TEMP              0 ****  ****    0 ROOT
