@<TRIPOS>MOLECULE
molecule
   41    45     1     0     0
SMALL
bcc


@<TRIPOS>ATOM
      1 CAI          0.0000     0.0000     0.0000 c3         1 9HE      -0.096900
      2 CAG          1.5390     0.0000     0.0000 c3         1 9HE      -0.083900
      3 CAH          1.9790     0.0000     1.4780 c3         1 9HE      -0.083900
      4 CAJ          0.7700    -0.6010     2.2350 c3         1 9HE      -0.096900
      5 CAW         -0.4420    -0.0010     1.4780 c3         1 9HE       0.084000
      6 NAX         -1.6280    -0.8400     1.6600 na         1 9HE      -0.019800
      7 NAN         -1.7320    -2.1850     1.2860 nc         1 9HE      -0.496100
      8 C4          -2.8010    -0.4350     2.2240 ca         1 9HE       0.533800
      9 N3          -3.2390     0.7100     2.7470 nb         1 9HE      -0.803000
     10 C2          -4.4570     0.8030     3.2320 ca         1 9HE       0.752900
     11 N1          -5.3040    -0.2110     3.2340 nb         1 9HE      -0.835000
     12 C6          -4.9600    -1.3940     2.7360 ca         1 9HE       0.789200
     13 NAA         -5.8500    -2.4510     2.7400 nv         1 9HE      -1.020500
     14 C5          -3.6680    -1.5440     2.2040 ca         1 9HE      -0.533500
     15 CAR         -2.9240    -2.6410     1.5870 cd         1 9HE       0.455500
     16 CAP         -3.4240    -4.0170     1.3490 ca         1 9HE      -0.262200
     17 CAF         -4.6990    -4.2240     0.8250 ca         1 9HE      -0.037000
     18 CAS         -5.1160    -5.5390     0.6220 ca         1 9HE      -0.231100
     19 CAD         -6.3420    -6.1530     0.1070 cd         1 9HE      -0.192200
     20 CAB         -6.1590    -7.4810     0.1500 cc         1 9HE      -0.092100
     21 NAO         -4.9170    -7.7660     0.6490 na         1 9HE      -0.278100
     22 CAT         -4.2520    -6.6020     0.9480 ca         1 9HE       0.472800
     23 NAM         -3.0470    -6.3500     1.4460 nb         1 9HE      -0.714000
     24 CAE         -2.6210    -5.1230     1.6450 ca         1 9HE       0.476200
     25 H1          -0.3690    -0.8890    -0.4960 hc         1 9HE       0.059700
     26 H2          -0.3700     0.8890    -0.4960 hc         1 9HE       0.059700
     27 H3           1.9090    -0.8890    -0.4960 hc         1 9HE       0.047200
     28 H4           1.9090     0.8890    -0.4960 hc         1 9HE       0.047200
     29 H5           2.8550    -0.6230     1.6110 hc         1 9HE       0.047200
     30 H6           2.1700     1.0120     1.8150 hc         1 9HE       0.047200
     31 H7           0.7700    -1.6820     2.1590 hc         1 9HE       0.059700
     32 H8           0.7700    -0.2820     3.2700 hc         1 9HE       0.059700
     33 H9          -0.6310     1.0120     1.8140 h1         1 9HE       0.093700
     34 H10         -4.7790     1.7500     3.6490 h5         1 9HE       0.060100
     35 H11         -5.5190    -3.3830     2.8910 hn         1 9HE       0.448300
     36 H12         -6.8290    -2.2810     2.6160 hn         1 9HE       0.448300
     37 H13         -5.4250    -3.4200     0.8340 ha         1 9HE       0.157000
     38 H14         -7.2270    -5.6340    -0.2410 ha         1 9HE       0.158000
     39 H15         -6.8870    -8.2200    -0.1650 h4         1 9HE       0.172000
     40 H16         -4.5470    -8.6870     0.7780 hn         1 9HE       0.307700
     41 H17         -1.6270    -4.9640     2.0450 h4         1 9HE       0.039100
@<TRIPOS>BOND
     1    21    20 1
     2    21    22 1
     3    20    19 2
     4    22    23 ar
     5    22    18 ar
     6    23    24 ar
     7    19    18 1
     8    18    17 ar
     9     3     4 1
    10     3     2 1
    11    24    16 ar
    12     4     5 1
    13    17    16 ar
    14    16    15 1
    15     7    15 2
    16     7     6 1
    17     2     1 1
    18    15    14 1
    19     5     6 1
    20     5     1 1
    21     6     8 1
    22    14     8 ar
    23    14    12 ar
    24     8     9 ar
    25    13    12 1
    26    12    11 ar
    27     9    10 ar
    28    11    10 ar
    29     1    25 1
    30     1    26 1
    31     2    27 1
    32     2    28 1
    33     3    29 1
    34     3    30 1
    35     4    31 1
    36     4    32 1
    37     5    33 1
    38    10    34 1
    39    13    35 1
    40    13    36 1
    41    17    37 1
    42    19    38 1
    43    20    39 1
    44    21    40 1
    45    24    41 1
@<TRIPOS>SUBSTRUCTURE
     1 9HE         1 TEMP              0 ****  ****    0 ROOT
