@<TRIPOS>MOLECULE
9HG
   62    65     1     0     0
SMALL
bcc


@<TRIPOS>ATOM
      1 C4           0.0000     0.0000     0.0000 ca         1 9HG       0.504600
      2 C5           1.4170     0.0000     0.0000 ca         1 9HG      -0.361600
      3 C6           2.0880     0.0000     1.2470 ca         1 9HG       0.599200
      4 C7          -3.5160     0.6590     5.4300 c3         1 9HG      -0.023900
      5 C8          -2.6760    -1.2520     4.2070 c3         1 9HG      -0.047400
      6 N1           1.3590     0.0000     2.3540 nb         1 9HG      -0.781000
      7 C3          -3.9370    -0.7520     4.9520 c3         1 9HG      -0.023900
      8 N3          -0.6460    -0.0040     1.1760 nb         1 9HG      -0.767000
      9 C1           0.0460     0.0010     4.7760 c3         1 9HG       0.202100
     10 C2           0.0290     0.0010     2.3090 ca         1 9HG       0.783900
     11 CAB         -2.0710    -0.0010    -3.5270 c3         1 9HG       0.239700
     12 CAC          3.5300    -0.0040    -3.4960 c3         1 9HG       0.241700
     13 CAE         -0.6880     0.0000    -1.2190 ca         1 9HG      -0.286300
     14 CAF          2.1160    -0.0010    -1.2140 ca         1 9HG      -0.144000
     15 CAJ         -2.6730     1.2180     4.2640 c3         1 9HG      -0.047400
     16 CAK         -2.1390     0.0020     3.4860 c3         1 9HG       0.137500
     17 CAL          4.2730     1.4370     3.1170 c3         1 9HG      -0.040900
     18 CAM          5.5370    -0.6130     2.4600 c3         1 9HG      -0.040900
     19 CAN          5.0330     1.4370     4.4450 c3         1 9HG       0.162300
     20 CAO          6.2600    -0.5540     3.8080 c3         1 9HG       0.162300
     21 CAW          0.0220    -0.0010    -2.4000 ca         1 9HG       0.177100
     22 CAX          1.4240    -0.0020    -2.3920 ca         1 9HG       0.091100
     23 CBB          4.1410    -0.0010     2.6090 c3         1 9HG       0.128500
     24 NAR         -0.6750     0.0010     3.5010 nh         1 9HG      -0.444300
     25 NAS          3.4650    -0.0020     1.3090 nu         1 9HG      -0.479900
     26 NBC          6.3620     0.8430     4.2490 n3         1 9HG      -0.547600
     27 OAT         -0.6430    -0.0010    -3.5840 os         1 9HG      -0.293900
     28 OAU          2.1030    -0.0030    -3.5700 os         1 9HG      -0.293900
     29 H2          -4.3890     1.2780     5.5960 hc         1 9HG       0.014450
     30 H3          -1.9430    -1.6250     4.9130 hc         1 9HG       0.022950
     31 H4          -2.9410    -2.0170     3.4860 hc         1 9HG       0.022950
     32 H5          -4.1600    -1.3920     5.7970 hc         1 9HG       0.014450
     33 H6          -4.7810    -0.6900     4.2750 hc         1 9HG       0.014450
     34 H7           0.7250    -0.8420     4.8070 h1         1 9HG       0.010700
     35 H8          -0.6630    -0.0770     5.5920 h1         1 9HG       0.010700
     36 H9           0.6080     0.9220     4.8740 h1         1 9HG       0.010700
     37 H10         -2.4120    -0.8850    -3.0010 h1         1 9HG      -0.000633
     38 H11         -2.4730    -0.0010    -4.5330 h1         1 9HG      -0.000633
     39 H12         -2.4110     0.8840    -3.0020 h1         1 9HG      -0.000633
     40 H13          3.8640    -0.8880    -2.9670 h1         1 9HG      -0.004967
     41 H14          3.8650     0.8810    -2.9680 h1         1 9HG      -0.004967
     42 H15          3.9440    -0.0050    -4.4970 h1         1 9HG      -0.004967
     43 H16          7.2620     1.9930     5.7540 h1         1 9HG       0.000367
     44 H17          8.1570     0.5400     5.2880 h1         1 9HG       0.000367
     45 H18          6.6940     0.3990     6.2710 h1         1 9HG       0.000367
     46 H19         -1.7710     0.0010    -1.2340 ha         1 9HG       0.140000
     47 H20          3.1990    -0.0020    -1.2190 ha         1 9HG       0.118000
     48 H21         -1.8470     1.8010     4.6520 hc         1 9HG       0.022950
     49 H22         -3.2940     1.8260     3.6180 hc         1 9HG       0.022950
     50 H23         -2.5050     0.0270     2.4670 h1         1 9HG       0.076700
     51 H24          4.8180     2.0270     2.3900 hc         1 9HG       0.026450
     52 H25          3.2870     1.8580     3.2660 hc         1 9HG       0.026450
     53 H26          6.1000    -0.0520     1.7240 hc         1 9HG       0.026450
     54 H27          5.4460    -1.6450     2.1440 hc         1 9HG       0.026450
     55 H28          5.1430     2.4560     4.7970 h1         1 9HG       0.010200
     56 H29          4.4830     0.8550     5.1740 h1         1 9HG       0.010200
     57 H30          5.7010    -1.1230     4.5410 h1         1 9HG       0.010200
     58 H31          7.2540    -0.9710     3.7010 h1         1 9HG       0.010200
     59 H32          3.5680    -0.5830     3.3200 h1         1 9HG       0.058700
     60 H33          4.0030    -0.0120     0.4650 hn         1 9HG       0.297800
     61 H1          -2.9160     0.5890     6.3300 hc         1 9HG       0.014450
     62 CAD          7.1720     0.9510     5.4710 c3         1 9HG       0.188100
@<TRIPOS>BOND
     1     1     2 ar  
     2     1     8 ar  
     3     1    13 ar  
     4     2     3 ar  
     5     2    14 ar  
     6     3     6 ar  
     7     3    25 1   
     8     4     7 1   
     9     4    15 1   
    10     4    29 1   
    11     4    61 1   
    12     5     7 1   
    13     5    16 1   
    14     5    30 1   
    15     5    31 1   
    16     6    10 ar  
    17     7    32 1   
    18     7    33 1   
    19     8    10 ar  
    20     9    24 1   
    21     9    34 1   
    22     9    35 1   
    23     9    36 1   
    24    10    24 1   
    25    11    27 1   
    26    11    37 1   
    27    11    38 1   
    28    11    39 1   
    29    12    28 1   
    30    12    40 1   
    31    12    41 1   
    32    12    42 1   
    33    13    21 ar  
    34    13    46 1   
    35    14    22 ar  
    36    14    47 1   
    37    15    16 1   
    38    15    48 1   
    39    15    49 1   
    40    16    24 1   
    41    16    50 1   
    42    17    19 1   
    43    17    23 1   
    44    17    51 1   
    45    17    52 1   
    46    18    20 1   
    47    18    23 1   
    48    18    53 1   
    49    18    54 1   
    50    19    26 1   
    51    19    55 1   
    52    19    56 1   
    53    20    26 1   
    54    20    57 1   
    55    20    58 1   
    56    21    22 ar  
    57    21    27 1   
    58    22    28 1   
    59    23    25 1   
    60    23    59 1   
    61    25    60 1   
    62    26    62 1   
    63    43    62 1   
    64    44    62 1   
    65    45    62 1   
@<TRIPOS>SUBSTRUCTURE
     1 9HG         1 TEMP              0 ****  ****    0 ROOT
