@<TRIPOS>MOLECULE
molecule
   62    65     1     0     0
SMALL
bcc


@<TRIPOS>ATOM
      1 C4           0.0000     0.0000     0.0000 ca         1 9HG       0.532600
      2 C5           1.4170     0.0000     0.0000 ca         1 9HG      -0.365600
      3 C6           2.0880     0.0000     1.2470 ca         1 9HG       0.780200
      4 C7          -3.5160     0.6590     5.4300 c3         1 9HG      -0.086400
      5 C8          -2.6760    -1.2520     4.2070 c3         1 9HG      -0.101400
      6 N1           1.3590     0.0000     2.3540 nb         1 9HG      -0.879000
      7 C3          -3.9370    -0.7520     4.9520 c3         1 9HG      -0.086400
      8 N3          -0.6460    -0.0040     1.1760 nb         1 9HG      -0.851000
      9 C1           0.0460     0.0010     4.7760 c3         1 9HG       0.239100
     10 C2           0.0290     0.0010     2.3090 ca         1 9HG       0.986900
     11 CAB         -2.0710    -0.0010    -3.5270 c3         1 9HG       0.124700
     12 CAC          3.5300    -0.0040    -3.4960 c3         1 9HG       0.128700
     13 CAE         -0.6880     0.0000    -1.2190 ca         1 9HG      -0.289300
     14 CAF          2.1160    -0.0010    -1.2140 ca         1 9HG      -0.152000
     15 CAJ         -2.6730     1.2180     4.2640 c3         1 9HG      -0.101400
     16 CAK         -2.1390     0.0020     3.4860 c3         1 9HG       0.246500
     17 CAL          4.2730     1.4370     3.1170 c3         1 9HG      -0.094400
     18 CAM          5.5370    -0.6130     2.4600 c3         1 9HG      -0.094400
     19 CAN          5.0330     1.4370     4.4450 c3         1 9HG       0.166800
     20 CAO          6.2600    -0.5540     3.8080 c3         1 9HG       0.166800
     21 CAW          0.0220    -0.0010    -2.4000 ca         1 9HG       0.173100
     22 CAX          1.4240    -0.0020    -2.3920 ca         1 9HG       0.089100
     23 CBB          4.1410    -0.0010     2.6090 c3         1 9HG       0.241500
     24 NAR         -0.6750     0.0010     3.5010 nh         1 9HG      -0.804300
     25 NAS          3.4650    -0.0020     1.3090 nu         1 9HG      -0.896900
     26 NBC          6.3620     0.8430     4.2490 n3         1 9HG      -0.734600
     27 OAT         -0.6430    -0.0010    -3.5840 os         1 9HG      -0.310900
     28 OAU          2.1030    -0.0030    -3.5700 os         1 9HG      -0.315900
     29 H2          -4.3890     1.2780     5.5960 hc         1 9HG       0.044200
     30 H3          -1.9430    -1.6250     4.9130 hc         1 9HG       0.051950
     31 H4          -2.9410    -2.0170     3.4860 hc         1 9HG       0.051950
     32 H5          -4.1600    -1.3920     5.7970 hc         1 9HG       0.044200
     33 H6          -4.7810    -0.6900     4.2750 hc         1 9HG       0.044200
     34 H7           0.7250    -0.8420     4.8070 h1         1 9HG       0.038700
     35 H8          -0.6630    -0.0770     5.5920 h1         1 9HG       0.038700
     36 H9           0.6080     0.9220     4.8740 h1         1 9HG       0.038700
     37 H10         -2.4120    -0.8850    -3.0010 h1         1 9HG       0.044367
     38 H11         -2.4730    -0.0010    -4.5330 h1         1 9HG       0.044367
     39 H12         -2.4110     0.8840    -3.0020 h1         1 9HG       0.044367
     40 H13          3.8640    -0.8880    -2.9670 h1         1 9HG       0.038700
     41 H14          3.8650     0.8810    -2.9680 h1         1 9HG       0.038700
     42 H15          3.9440    -0.0050    -4.4970 h1         1 9HG       0.038700
     43 H16          7.2620     1.9930     5.7540 h1         1 9HG       0.032033
     44 H17          8.1570     0.5400     5.2880 h1         1 9HG       0.032033
     45 H18          6.6940     0.3990     6.2710 h1         1 9HG       0.032033
     46 H19         -1.7710     0.0010    -1.2340 ha         1 9HG       0.159000
     47 H20          3.1990    -0.0020    -1.2190 ha         1 9HG       0.130000
     48 H21         -1.8470     1.8010     4.6520 hc         1 9HG       0.051950
     49 H22         -3.2940     1.8260     3.6180 hc         1 9HG       0.051950
     50 H23         -2.5050     0.0270     2.4670 h1         1 9HG       0.100700
     51 H24          4.8180     2.0270     2.3900 hc         1 9HG       0.055450
     52 H25          3.2870     1.8580     3.2660 hc         1 9HG       0.055450
     53 H26          6.1000    -0.0520     1.7240 hc         1 9HG       0.055450
     54 H27          5.4460    -1.6450     2.1440 hc         1 9HG       0.055450
     55 H28          5.1430     2.4560     4.7970 h1         1 9HG       0.036450
     56 H29          4.4830     0.8550     5.1740 h1         1 9HG       0.036450
     57 H30          5.7010    -1.1230     4.5410 h1         1 9HG       0.036450
     58 H31          7.2540    -0.9710     3.7010 h1         1 9HG       0.036450
     59 H32          3.5680    -0.5830     3.3200 h1         1 9HG       0.080700
     60 H33          4.0030    -0.0120     0.4650 hn         1 9HG       0.447800
     61 H1          -2.9160     0.5890     6.3300 hc         1 9HG       0.044200
     62 CAD          7.1720     0.9510     5.4710 c3         1 9HG       0.153100
@<TRIPOS>BOND
     1     7     5 1
     2     7     4 1
     3     5    16 1
     4     4    15 1
     5     9    24 1
     6    16    15 1
     7    16    24 1
     8    24    10 1
     9    10     6 ar
    10    10     8 ar
    11    20    18 1
    12    20    26 1
    13     6     3 ar
    14     8     1 ar
    15    62    26 1
    16    18    23 1
    17    26    19 1
    18    23    25 1
    19    23    17 1
    20     3    25 1
    21     3     2 ar
    22     1    13 ar
    23     1     2 ar
    24    19    17 1
    25    13    21 ar
    26     2    14 ar
    27    21    22 ar
    28    21    27 1
    29    11    27 1
    30    14    22 ar
    31    22    28 1
    32    28    12 1
    33     4    61 1
    34     4    29 1
    35     5    30 1
    36     5    31 1
    37     7    32 1
    38     7    33 1
    39     9    34 1
    40     9    35 1
    41     9    36 1
    42    11    37 1
    43    11    38 1
    44    11    39 1
    45    12    40 1
    46    12    41 1
    47    12    42 1
    48    62    43 1
    49    62    44 1
    50    62    45 1
    51    13    46 1
    52    14    47 1
    53    15    48 1
    54    15    49 1
    55    16    50 1
    56    17    51 1
    57    17    52 1
    58    18    53 1
    59    18    54 1
    60    19    55 1
    61    19    56 1
    62    20    57 1
    63    20    58 1
    64    23    59 1
    65    25    60 1
@<TRIPOS>SUBSTRUCTURE
     1 9HG         1 TEMP              0 ****  ****    0 ROOT
