@<TRIPOS>MOLECULE
molecule
   40    43     1     0     0
SMALL
bcc


@<TRIPOS>ATOM
      1 OAX          0.0000     0.0000     0.0000 o          1 9HH      -0.621300
      2 SAB          1.4210     0.0000     0.0000 s6         1 9HH       1.328900
      3 OAW          2.1530     0.0000     1.2170 o          1 9HH      -0.621300
      4 CAA          2.0570    -1.2710    -1.1260 c3         1 9HH      -0.255300
      5 NAC          1.8290     1.4340    -0.7210 nu         1 9HH      -0.762500
      6 CAD          1.3520     1.7330    -1.9980 ca         1 9HH       0.144600
      7 CAI          2.1350     2.4830    -2.8840 cp         1 9HH      -0.068000
      8 CAH          1.6500     2.7760    -4.1550 ca         1 9HH      -0.095000
      9 CAG          0.4010     2.3250    -4.5370 ca         1 9HH      -0.148000
     10 CAF         -0.3710     1.5850    -3.6610 ca         1 9HH      -0.099000
     11 CAE          0.1020     1.2820    -2.3970 ca         1 9HH      -0.190000
     12 CAJ          3.4750     2.9640    -2.4690 cp         1 9HH      -0.078000
     13 CAK          3.7190     4.3280    -2.3460 ca         1 9HH      -0.082000
     14 CAL          4.9670     4.7840    -1.9590 ca         1 9HH      -0.165000
     15 CAM          5.9830     3.8920    -1.6910 ca         1 9HH      -0.066000
     16 CAN          5.7590     2.5210    -1.8080 cp         1 9HH      -0.090000
     17 CAV          4.4980     2.0460    -2.1940 ca         1 9HH       0.018800
     18 CAO          6.6070     1.3340    -1.6010 cp         1 9HH      -0.087000
     19 CAT          5.8050     0.2180    -1.8800 ca         1 9HH       0.001800
     20 NAU          4.5440     0.6650    -2.2320 na         1 9HH      -0.194300
     21 CAP          7.9340     1.1600    -1.2140 ca         1 9HH      -0.069000
     22 CAQ          8.4550    -0.1110    -1.1070 ca         1 9HH      -0.160000
     23 CAR          7.6630    -1.2160    -1.3830 ca         1 9HH      -0.092000
     24 CAS          6.3490    -1.0580    -1.7660 ca         1 9HH      -0.160000
     25 H1           2.0690    -0.8840    -2.1380 h1         1 9HH       0.101033
     26 H2           3.0640    -1.5430    -0.8320 h1         1 9HH       0.101033
     27 H3           1.4190    -2.1450    -1.0810 h1         1 9HH       0.101033
     28 H4           2.3700     2.1090    -0.2190 hn         1 9HH       0.477800
     29 H5           2.2510     3.3560    -4.8450 ha         1 9HH       0.141000
     30 H6           0.0240     2.5560    -5.5260 ha         1 9HH       0.134000
     31 H7          -1.3490     1.2330    -3.9690 ha         1 9HH       0.138000
     32 H8          -0.5080     0.7020    -1.7150 ha         1 9HH       0.184000
     33 H9           2.9270     5.0370    -2.5540 ha         1 9HH       0.140000
     34 H10          5.1460     5.8490    -1.8660 ha         1 9HH       0.135000
     35 H11          6.9570     4.2570    -1.3890 ha         1 9HH       0.134000
     36 H12          3.7770     0.0740    -2.4820 hn         1 9HH       0.296700
     37 H13          8.5540     2.0210    -0.9980 ha         1 9HH       0.133000
     38 H14          9.4870    -0.2480    -0.8060 ha         1 9HH       0.133000
     39 H15          8.0810    -2.2110    -1.2960 ha         1 9HH       0.133000
     40 H16          5.7390    -1.9270    -1.9800 ha         1 9HH       0.126000
@<TRIPOS>BOND
     1    22    21 ar
     2    22    23 ar
     3    21    18 ar
     4    23    24 ar
     5    18    16 1
     6    18    19 ar
     7    15    16 ar
     8    15    14 ar
     9    16    17 ar
    10    24    19 ar
    11    19    20 1
    12    14    13 ar
    13    17    20 1
    14    17    12 ar
    15    13    12 ar
    16    12     7 1
    17     4     2 1
    18     1     2 2
    19     2     5 1
    20     2     3 2
    21     7     8 ar
    22     7     6 ar
    23     5     6 1
    24     8     9 ar
    25     6    11 ar
    26     9    10 ar
    27    11    10 ar
    28     4    25 1
    29     4    26 1
    30     4    27 1
    31     5    28 1
    32     8    29 1
    33     9    30 1
    34    10    31 1
    35    11    32 1
    36    13    33 1
    37    14    34 1
    38    15    35 1
    39    20    36 1
    40    21    37 1
    41    22    38 1
    42    23    39 1
    43    24    40 1
@<TRIPOS>SUBSTRUCTURE
     1 9HH         1 TEMP              0 ****  ****    0 ROOT
