@<TRIPOS>MOLECULE
9HJ
   58    60     1     0     0
SMALL
bcc


@<TRIPOS>ATOM
      1 C4           0.0000     0.0000     0.0000 ca         1 9HJ       0.503600
      2 C5           1.4160     0.0000     0.0000 ca         1 9HJ      -0.359600
      3 C6           2.0870     0.0000     1.2470 ca         1 9HJ       0.598200
      4 C7          -4.1790    -1.4430     3.4680 c3         1 9HJ       0.010900
      5 N1           1.3590     0.0000     2.3550 nb         1 9HJ      -0.780000
      6 N3          -0.6470    -0.0000     1.1770 nb         1 9HJ      -0.765000
      7 C1           0.0460     0.0000     4.7770 c3         1 9HJ       0.212100
      8 C2           0.0300     0.0010     2.3100 ca         1 9HJ       0.782900
      9 CAB         -2.0720    -0.0180    -3.5250 c3         1 9HJ       0.239700
     10 CAC          3.5290     0.0010    -3.4970 c3         1 9HJ       0.241700
     11 CAD          7.1730     0.9540     5.4700 c3         1 9HJ       0.188100
     12 CAE         -0.6890    -0.0060    -1.2190 ca         1 9HJ      -0.285300
     13 CAF          2.1130    -0.0000    -1.2140 ca         1 9HJ      -0.145000
     14 CAJ         -2.6490    -1.4430     3.4830 c3         1 9HJ      -0.052400
     15 CAK         -2.1390     0.0000     3.4870 c3         1 9HJ       0.171800
     16 CAL          4.2730     1.4370     3.1160 c3         1 9HJ      -0.040400
     17 CAM          5.5370    -0.6110     2.4590 c3         1 9HJ      -0.040400
     18 CAN          5.0330     1.4380     4.4440 c3         1 9HJ       0.162300
     19 CAO          6.2610    -0.5520     3.8070 c3         1 9HJ       0.162300
     20 CAW          0.0210    -0.0060    -2.4000 ca         1 9HJ       0.176100
     21 CAX          1.4230    -0.0000    -2.3920 ca         1 9HJ       0.092100
     22 CBB          4.1410    -0.0000     2.6090 c3         1 9HJ       0.128500
     23 NAR         -0.6740     0.0000     3.5020 nh         1 9HJ      -0.455300
     24 NAS          3.4660    -0.0000     1.3080 nu         1 9HJ      -0.481900
     25 NBC          6.3620     0.8450     4.2480 n3         1 9HJ      -0.548600
     26 OAT         -0.6440    -0.0120    -3.5840 os         1 9HJ      -0.293900
     27 OAU          2.1010    -0.0000    -3.5700 os         1 9HJ      -0.293900
     28 H1          -4.5490    -1.1580     4.4460 hc         1 9HJ       0.000033
     29 H2          -4.5380    -2.4340     3.2210 hc         1 9HJ       0.000033
     30 H3          -4.5330    -0.7350     2.7280 hc         1 9HJ       0.000033
     31 H4           0.7870    -0.7900     4.7740 h1         1 9HJ       0.006700
     32 H5          -0.6540    -0.1650     5.5880 h1         1 9HJ       0.006700
     33 H6           0.5390     0.9550     4.9140 h1         1 9HJ       0.006700
     34 H7          -2.4740    -0.0200    -4.5310 h1         1 9HJ       0.000033
     35 H8          -2.4080    -0.9030    -3.0000 h1         1 9HJ       0.000033
     36 H9          -2.4160     0.8660    -3.0010 h1         1 9HJ       0.000033
     37 H10          3.8640    -0.8850    -2.9710 h1         1 9HJ      -0.004633
     38 H11          3.8620     0.8840    -2.9660 h1         1 9HJ      -0.004633
     39 H12          3.9420     0.0040    -4.4980 h1         1 9HJ      -0.004633
     40 H13          6.7100     0.3790     6.2630 h1         1 9HJ       0.000367
     41 H14          8.1670     0.5690     5.2780 h1         1 9HJ       0.000367
     42 H15          7.2390     1.9930     5.7680 h1         1 9HJ       0.000367
     43 H16         -1.7720    -0.0100    -1.2330 ha         1 9HJ       0.140000
     44 H17          3.1970     0.0040    -1.2190 ha         1 9HJ       0.118000
     45 H18         -2.2790    -1.9540     2.6020 hc         1 9HJ       0.019700
     46 H19         -2.2960    -1.9530     4.3710 hc         1 9HJ       0.019700
     47 H20         -2.4920     0.5110     2.5990 h1         1 9HJ       0.031200
     48 H21         -2.5090     0.5110     4.3680 h1         1 9HJ       0.031200
     49 H22          4.8170     2.0280     2.3890 hc         1 9HJ       0.026450
     50 H23          3.2860     1.8580     3.2660 hc         1 9HJ       0.026450
     51 H24          6.0990    -0.0490     1.7230 hc         1 9HJ       0.026450
     52 H25          5.4470    -1.6430     2.1430 hc         1 9HJ       0.026450
     53 H26          5.1420     2.4570     4.7960 h1         1 9HJ       0.009950
     54 H27          4.4840     0.8550     5.1730 h1         1 9HJ       0.009950
     55 H28          5.7030    -1.1210     4.5410 h1         1 9HJ       0.009950
     56 H29          7.2550    -0.9680     3.7000 h1         1 9HJ       0.009950
     57 H30          3.5670    -0.5820     3.3200 h1         1 9HJ       0.057700
     58 H31          4.0030    -0.0530     0.4660 hn         1 9HJ       0.297800
@<TRIPOS>BOND
     1     1     2 ar  
     2     1     6 ar  
     3     1    12 ar  
     4     2     3 ar  
     5     2    13 ar  
     6     3     5 ar  
     7     3    24 1   
     8     4    14 1   
     9     4    28 1   
    10     4    29 1   
    11     4    30 1   
    12     5     8 ar  
    13     6     8 ar  
    14     7    23 1   
    15     7    31 1   
    16     7    32 1   
    17     7    33 1   
    18     8    23 1   
    19     9    26 1   
    20     9    34 1   
    21     9    35 1   
    22     9    36 1   
    23    10    27 1   
    24    10    37 1   
    25    10    38 1   
    26    10    39 1   
    27    11    25 1   
    28    11    40 1   
    29    11    41 1   
    30    11    42 1   
    31    12    20 ar  
    32    12    43 1   
    33    13    21 ar  
    34    13    44 1   
    35    14    15 1   
    36    14    45 1   
    37    14    46 1   
    38    15    23 1   
    39    15    47 1   
    40    15    48 1   
    41    16    18 1   
    42    16    22 1   
    43    16    49 1   
    44    16    50 1   
    45    17    19 1   
    46    17    22 1   
    47    17    51 1   
    48    17    52 1   
    49    18    25 1   
    50    18    53 1   
    51    18    54 1   
    52    19    25 1   
    53    19    55 1   
    54    19    56 1   
    55    20    21 ar  
    56    20    26 1   
    57    21    27 1   
    58    22    24 1   
    59    22    57 1   
    60    24    58 1   
@<TRIPOS>SUBSTRUCTURE
     1 9HJ         1 TEMP              0 ****  ****    0 ROOT
