@<TRIPOS>MOLECULE
molecule
   58    60     1     0     0
SMALL
bcc


@<TRIPOS>ATOM
      1 C4           0.0000     0.0000     0.0000 ca         1 9HJ       0.530600
      2 C5           1.4160     0.0000     0.0000 ca         1 9HJ      -0.363600
      3 C6           2.0870     0.0000     1.2470 ca         1 9HJ       0.780200
      4 C7          -4.1790    -1.4430     3.4680 c3         1 9HJ      -0.091100
      5 N1           1.3590     0.0000     2.3550 nb         1 9HJ      -0.878000
      6 N3          -0.6470    -0.0000     1.1770 nb         1 9HJ      -0.847000
      7 C1           0.0460     0.0000     4.7770 c3         1 9HJ       0.242100
      8 C2           0.0300     0.0010     2.3100 ca         1 9HJ       0.984900
      9 CAB         -2.0720    -0.0180    -3.5250 c3         1 9HJ       0.124700
     10 CAC          3.5290     0.0010    -3.4970 c3         1 9HJ       0.128700
     11 CAD          7.1730     0.9540     5.4700 c3         1 9HJ       0.153100
     12 CAE         -0.6890    -0.0060    -1.2190 ca         1 9HJ      -0.288300
     13 CAF          2.1130    -0.0000    -1.2140 ca         1 9HJ      -0.152000
     14 CAJ         -2.6490    -1.4430     3.4830 c3         1 9HJ      -0.107400
     15 CAK         -2.1390     0.0000     3.4870 c3         1 9HJ       0.247800
     16 CAL          4.2730     1.4370     3.1160 c3         1 9HJ      -0.094400
     17 CAM          5.5370    -0.6110     2.4590 c3         1 9HJ      -0.094400
     18 CAN          5.0330     1.4380     4.4440 c3         1 9HJ       0.166300
     19 CAO          6.2610    -0.5520     3.8070 c3         1 9HJ       0.166300
     20 CAW          0.0210    -0.0060    -2.4000 ca         1 9HJ       0.173100
     21 CAX          1.4230    -0.0000    -2.3920 ca         1 9HJ       0.090100
     22 CBB          4.1410    -0.0000     2.6090 c3         1 9HJ       0.241500
     23 NAR         -0.6740     0.0000     3.5020 nh         1 9HJ      -0.811300
     24 NAS          3.4660    -0.0000     1.3080 nu         1 9HJ      -0.896900
     25 NBC          6.3620     0.8450     4.2480 n3         1 9HJ      -0.734600
     26 OAT         -0.6440    -0.0120    -3.5840 os         1 9HJ      -0.310900
     27 OAU          2.1010    -0.0000    -3.5700 os         1 9HJ      -0.315900
     28 H1          -4.5490    -1.1580     4.4460 hc         1 9HJ       0.033033
     29 H2          -4.5380    -2.4340     3.2210 hc         1 9HJ       0.033033
     30 H3          -4.5330    -0.7350     2.7280 hc         1 9HJ       0.033033
     31 H4           0.7870    -0.7900     4.7740 h1         1 9HJ       0.037367
     32 H5          -0.6540    -0.1650     5.5880 h1         1 9HJ       0.037367
     33 H6           0.5390     0.9550     4.9140 h1         1 9HJ       0.037367
     34 H7          -2.4740    -0.0200    -4.5310 h1         1 9HJ       0.044033
     35 H8          -2.4080    -0.9030    -3.0000 h1         1 9HJ       0.044033
     36 H9          -2.4160     0.8660    -3.0010 h1         1 9HJ       0.044033
     37 H10          3.8640    -0.8850    -2.9710 h1         1 9HJ       0.038700
     38 H11          3.8620     0.8840    -2.9660 h1         1 9HJ       0.038700
     39 H12          3.9420     0.0040    -4.4980 h1         1 9HJ       0.038700
     40 H13          6.7100     0.3790     6.2630 h1         1 9HJ       0.032367
     41 H14          8.1670     0.5690     5.2780 h1         1 9HJ       0.032367
     42 H15          7.2390     1.9930     5.7680 h1         1 9HJ       0.032367
     43 H16         -1.7720    -0.0100    -1.2330 ha         1 9HJ       0.159000
     44 H17          3.1970     0.0040    -1.2190 ha         1 9HJ       0.130000
     45 H18         -2.2790    -1.9540     2.6020 hc         1 9HJ       0.049200
     46 H19         -2.2960    -1.9530     4.3710 hc         1 9HJ       0.049200
     47 H20         -2.4920     0.5110     2.5990 h1         1 9HJ       0.058200
     48 H21         -2.5090     0.5110     4.3680 h1         1 9HJ       0.058200
     49 H22          4.8170     2.0280     2.3890 hc         1 9HJ       0.055700
     50 H23          3.2860     1.8580     3.2660 hc         1 9HJ       0.055700
     51 H24          6.0990    -0.0490     1.7230 hc         1 9HJ       0.055700
     52 H25          5.4470    -1.6430     2.1430 hc         1 9HJ       0.055700
     53 H26          5.1420     2.4570     4.7960 h1         1 9HJ       0.036450
     54 H27          4.4840     0.8550     5.1730 h1         1 9HJ       0.036450
     55 H28          5.7030    -1.1210     4.5410 h1         1 9HJ       0.036450
     56 H29          7.2550    -0.9680     3.7000 h1         1 9HJ       0.036450
     57 H30          3.5670    -0.5820     3.3200 h1         1 9HJ       0.079700
     58 H31          4.0030    -0.0530     0.4660 hn         1 9HJ       0.447800
@<TRIPOS>BOND
     1    10    27 1
     2    27    21 1
     3    21    13 ar
     4    21    20 ar
     5    26     9 1
     6    26    20 1
     7    13     2 ar
     8    20    12 ar
     9    24    22 1
    10    24     3 1
    11     2     3 ar
    12     2     1 ar
    13    12     1 ar
    14    19    17 1
    15    19    25 1
    16    22    17 1
    17    22    16 1
    18     3     5 ar
    19     1     6 ar
    20    11    25 1
    21    25    18 1
    22    18    16 1
    23     5     8 ar
    24     6     8 ar
    25     8    23 1
    26    23    15 1
    27    23     7 1
    28    15    14 1
    29    14     4 1
    30     4    28 1
    31     4    29 1
    32     4    30 1
    33     7    31 1
    34     7    32 1
    35     7    33 1
    36     9    34 1
    37     9    35 1
    38     9    36 1
    39    10    37 1
    40    10    38 1
    41    10    39 1
    42    11    40 1
    43    11    41 1
    44    11    42 1
    45    12    43 1
    46    13    44 1
    47    14    45 1
    48    14    46 1
    49    15    47 1
    50    15    48 1
    51    16    49 1
    52    16    50 1
    53    17    51 1
    54    17    52 1
    55    18    53 1
    56    18    54 1
    57    19    55 1
    58    19    56 1
    59    22    57 1
    60    24    58 1
@<TRIPOS>SUBSTRUCTURE
     1 9HJ         1 TEMP              0 ****  ****    0 ROOT
