@<TRIPOS>MOLECULE
molecule
   33    34     1     0     0
SMALL
bcc


@<TRIPOS>ATOM
      1 CAA          0.0000     0.0000     0.0000 ca         1 9HK      -0.128000
      2 CAB          1.3820     0.0000     0.0000 ca         1 9HK      -0.061500
      3 CAC          2.0730     0.0000     1.1970 ca         1 9HK      -0.142200
      4 NAR          3.5530    -0.0010     1.1970 no         1 9HK       0.289200
      5 OAT          4.1630    -0.0020     0.1420 o          1 9HK      -0.189000
      6 OAS          4.1630    -0.0010     2.2520 o          1 9HK      -0.189000
      7 CAD          1.3820     0.0010     2.3940 ca         1 9HK      -0.061500
      8 CAE          0.0000     0.0010     2.3940 ca         1 9HK      -0.128000
      9 CAF         -0.6920     0.0070     1.1960 ca         1 9HK      -0.065300
     10 CAG         -2.1980     0.0070     1.1960 c3         1 9HK      -0.008800
     11 CAH         -2.7010     1.4280     1.2030 ca         1 9HK       0.023700
     12 CAI         -2.9310     2.0850     0.0080 ca         1 9HK      -0.128000
     13 CAJ         -3.3910     3.3880     0.0140 ca         1 9HK      -0.022500
     14 CAK         -3.6210     4.0350     1.2140 ca         1 9HK      -0.347500
     15 SAN         -4.2080     5.6960     1.2210 sy         1 9HK       1.227200
     16 OAO         -3.8290     6.2500     2.4730 o          1 9HK      -0.516300
     17 OAP         -3.8270     6.2620    -0.0260 o          1 9HK      -0.516300
     18 NAQ         -5.8630     5.6330     1.2190 nz         1 9HK      -0.806500
     19 CAL         -3.3930     3.3770     2.4080 ca         1 9HK      -0.022500
     20 CAM         -2.9360     2.0720     2.4030 ca         1 9HK      -0.128000
     21 H1          -0.5410     0.0020    -0.9380 ha         1 9HK       0.145000
     22 H2           1.9240    -0.0060    -0.9380 ha         1 9HK       0.176000
     23 H3           1.9240    -0.0010     3.3320 ha         1 9HK       0.176000
     24 H4          -0.5410     0.0050     3.3320 ha         1 9HK       0.145000
     25 H5          -2.5590    -0.5080     2.0780 hc         1 9HK       0.078700
     26 H6          -2.5590    -0.5000     0.3090 hc         1 9HK       0.078700
     27 H7          -2.7500     1.5790    -0.9330 ha         1 9HK       0.165000
     28 H8          -3.5710     3.9030    -0.9220 ha         1 9HK       0.157500
     29 H9          -6.2320     6.5630     1.2230 hn         1 9HK       0.491800
     30 H10         -6.1790     5.1450     2.0340 hn         1 9HK       0.491800
     31 H11         -3.5750     3.8830     3.3480 ha         1 9HK       0.157500
     32 H12         -2.7570     1.5570     3.3390 ha         1 9HK       0.165000
     33 HAQ3        -6.1770     5.1380     0.4080 hn         1 9HK       0.491800
@<TRIPOS>BOND
     1     8     7 ar
     2     8     9 ar
     3     7     3 ar
     4    10     9 1
     5    10    11 1
     6     6     4 1
     7     9     1 ar
     8     3     4 1
     9     3     2 ar
    10    11    12 ar
    11    11    20 ar
    12     4     5 1
    13    12    13 ar
    14    20    19 ar
    15     1     2 ar
    16    13    14 ar
    17    19    14 ar
    18    14    15 1
    19    18    15 1
    20    17    15 2
    21    15    16 2
    22     1    21 1
    23     2    22 1
    24     7    23 1
    25     8    24 1
    26    10    25 1
    27    10    26 1
    28    12    27 1
    29    13    28 1
    30    18    29 1
    31    18    30 1
    32    19    31 1
    33    20    32 1
    34    33    18 1
@<TRIPOS>SUBSTRUCTURE
     1 9HK         1 TEMP              0 ****  ****    0 ROOT
