@<TRIPOS>MOLECULE
9HK
   33    34     1     0     0
SMALL
bcc


@<TRIPOS>ATOM
      1 CAA          0.0000     0.0000     0.0000 ca         1 9HK      -0.114000
      2 CAB          1.3820     0.0000     0.0000 ca         1 9HK       0.001500
      3 CAC          2.0730     0.0000     1.1970 ca         1 9HK      -0.434200
      4 NAR          3.5530    -0.0010     1.1970 no         1 9HK       1.039200
      5 OAT          4.1630    -0.0020     0.1420 o          1 9HK      -0.436000
      6 OAS          4.1630    -0.0010     2.2520 o          1 9HK      -0.436000
      7 CAD          1.3820     0.0010     2.3940 ca         1 9HK       0.001500
      8 CAE          0.0000     0.0010     2.3940 ca         1 9HK      -0.114000
      9 CAF         -0.6920     0.0070     1.1960 ca         1 9HK      -0.058300
     10 CAG         -2.1980     0.0070     1.1960 c3         1 9HK       0.066200
     11 CAH         -2.7010     1.4280     1.2030 ca         1 9HK       0.020700
     12 CAI         -2.9310     2.0850     0.0080 ca         1 9HK      -0.105500
     13 CAJ         -3.3910     3.3880     0.0140 ca         1 9HK       0.018500
     14 CAK         -3.6210     4.0350     1.2140 ca         1 9HK      -0.233500
     15 SAN         -4.2080     5.6960     1.2210 sy         1 9HK       0.936200
     16 OAO         -3.8290     6.2500     2.4730 o          1 9HK      -0.493800
     17 OAP         -3.8270     6.2620    -0.0260 o          1 9HK      -0.493800
     18 NAQ         -5.8630     5.6330     1.2190 nz         1 9HK      -0.131500
     19 CAL         -3.3930     3.3770     2.4080 ca         1 9HK       0.018500
     20 CAM         -2.9360     2.0720     2.4030 ca         1 9HK      -0.105500
     21 H1          -0.5410     0.0020    -0.9380 ha         1 9HK       0.115000
     22 H2           1.9240    -0.0060    -0.9380 ha         1 9HK       0.140000
     23 H3           1.9240    -0.0010     3.3320 ha         1 9HK       0.140000
     24 H4          -0.5410     0.0050     3.3320 ha         1 9HK       0.115000
     25 H5          -2.5590    -0.5080     2.0780 hc         1 9HK       0.040700
     26 H6          -2.5590    -0.5000     0.3090 hc         1 9HK       0.040700
     27 H7          -2.7500     1.5790    -0.9330 ha         1 9HK       0.134000
     28 H8          -3.5710     3.9030    -0.9220 ha         1 9HK       0.126500
     29 H9          -6.2320     6.5630     1.2230 hn         1 9HK       0.313467
     30 H10         -6.1790     5.1450     2.0340 hn         1 9HK       0.313467
     31 H11         -3.5750     3.8830     3.3480 ha         1 9HK       0.126500
     32 H12         -2.7570     1.5570     3.3390 ha         1 9HK       0.134000
     33 HAQ3        -6.1770     5.1380     0.4080 hn         1 9HK       0.313467
@<TRIPOS>BOND
     1     1     2 ar  
     2     1     9 ar  
     3     1    21 1   
     4     2     3 ar  
     5     2    22 1   
     6     3     4 1   
     7     3     7 ar  
     8     4     5 1   
     9     4     6 1   
    10     7     8 ar  
    11     7    23 1   
    12     8     9 ar  
    13     8    24 1   
    14     9    10 1   
    15    10    11 1   
    16    10    25 1   
    17    10    26 1   
    18    11    12 ar  
    19    11    20 ar  
    20    12    13 ar  
    21    12    27 1   
    22    13    14 ar  
    23    13    28 1   
    24    14    15 1   
    25    14    19 ar  
    26    15    16 2   
    27    15    17 2   
    28    15    18 1   
    29    18    29 1   
    30    18    30 1   
    31    18    33 1   
    32    19    20 ar  
    33    19    31 1   
    34    20    32 1   
@<TRIPOS>SUBSTRUCTURE
     1 9HK         1 TEMP              0 ****  ****    0 ROOT
