@<TRIPOS>MOLECULE
9HL
   45    48     1     0     0
SMALL
bcc


@<TRIPOS>ATOM
      1 N01          0.0000     0.0000     0.0000 nc         1 9HL      -0.612000
      2 C02          1.3040     0.0000     0.0000 cd         1 9HL       0.237400
      3 N03          1.7370     0.0000     1.2900 na         1 9HL       0.289300
      4 C04          0.6200    -0.0010     2.0870 cd         1 9HL      -0.414600
      5 C05         -0.4460    -0.0020     1.2650 cc         1 9HL       0.326200
      6 C1'          9.7140    -3.8770    -5.1810 ca         1 9HL      -0.020300
      7 N11          4.0330     0.0010     0.8200 nb         1 9HL      -0.631000
      8 C12          3.0630    -0.0000     1.7200 ca         1 9HL       0.540500
      9 N13          3.3210    -0.0010     3.0170 nb         1 9HL      -0.634000
     10 C14          4.5670     0.0000     3.4600 ca         1 9HL       0.471200
     11 C15          5.6090     0.0020     2.5460 ca         1 9HL      -0.352600
     12 C16          5.3020     0.0020     1.1930 ca         1 9HL       0.440600
     13 C17          6.4010     0.0030     0.1610 c3         1 9HL      -0.074700
     14 C18          6.2070    -1.1790    -0.7910 c3         1 9HL       0.144800
     15 N19          7.2780    -1.1780    -1.7960 n7         1 9HL      -0.586200
     16 C2'         10.1210    -5.1760    -4.9410 ca         1 9HL      -0.127000
     17 C20          7.1250    -2.3020    -2.7300 c3         1 9HL       0.184800
     18 C21          8.2560    -2.2680    -3.7590 cx         1 9HL      -0.103700
     19 C22          7.8710    -2.0490    -5.2240 cx         1 9HL      -0.089400
     20 C23          8.3410    -3.4270    -4.7540 cx         1 9HL      -0.050400
     21 C3'         11.3830    -5.5900    -5.3340 ca         1 9HL       0.108900
     22 C4'         12.2350    -4.7020    -5.9670 ca         1 9HL      -0.139000
     23 C5'         11.8260    -3.4040    -6.2080 ca         1 9HL      -0.067000
     24 C6'         10.5680    -2.9900    -5.8100 ca         1 9HL      -0.127000
     25 F7'         11.7830    -6.8590    -5.0980 f          1 9HL      -0.128900
     26 H02          1.9370     0.0010    -0.8790 h5         1 9HL       0.035100
     27 H04          0.6000    -0.0010     3.1700 h4         1 9HL       0.166000
     28 H05         -1.4850    -0.0020     1.5720 h4         1 9HL       0.004100
     29 H14          4.7710     0.0000     4.5240 h4         1 9HL      -0.008900
     30 H15          6.6390     0.0020     2.8800 ha         1 9HL       0.134000
     31 H17          6.3680     0.9280    -0.4010 hc         1 9HL       0.033700
     32 H17A         7.3610    -0.0850     0.6560 hc         1 9HL       0.033700
     33 H18          6.2400    -2.1050    -0.2290 h1         1 9HL       0.016200
     34 H18A         5.2480    -1.0910    -1.2850 h1         1 9HL       0.016200
     35 HN19         7.2580    -0.3160    -2.3040 hn         1 9HL       0.255800
     36 H2'          9.4530    -5.8700    -4.4450 ha         1 9HL       0.122000
     37 H20          6.1720    -2.2200    -3.2390 h1         1 9HL       0.011200
     38 H20A         7.1630    -3.2350    -2.1820 h1         1 9HL       0.011200
     39 H21          9.2110    -1.8440    -3.4730 hc         1 9HL       0.074700
     40 H22          6.8100    -1.9590    -5.4200 hc         1 9HL       0.052700
     41 H22A         8.5850    -1.4880    -5.8160 hc         1 9HL       0.052700
     42 H23          7.5550    -4.1650    -4.6580 hc         1 9HL       0.064700
     43 H4'         13.2210    -5.0250    -6.2770 ha         1 9HL       0.119000
     44 H5'         12.4940    -2.7090    -6.7020 ha         1 9HL       0.106000
     45 H6'         10.2480    -1.9730    -5.9980 ha         1 9HL       0.117000
@<TRIPOS>BOND
     1     1     2 2   
     2     1     5 1   
     3     2     3 1   
     4     2    26 1   
     5     3     4 1   
     6     3     8 1   
     7     4     5 2   
     8     4    27 1   
     9     5    28 1   
    10     6    16 ar  
    11     6    20 1   
    12     6    24 ar  
    13     7     8 ar  
    14     7    12 ar  
    15     8     9 ar  
    16     9    10 ar  
    17    10    11 ar  
    18    10    29 1   
    19    11    12 ar  
    20    11    30 1   
    21    12    13 1   
    22    13    14 1   
    23    13    31 1   
    24    13    32 1   
    25    14    15 1   
    26    14    33 1   
    27    14    34 1   
    28    15    17 1   
    29    15    35 1   
    30    16    21 ar  
    31    16    36 1   
    32    17    18 1   
    33    17    37 1   
    34    17    38 1   
    35    18    19 1   
    36    18    20 1   
    37    18    39 1   
    38    19    20 1   
    39    19    40 1   
    40    19    41 1   
    41    20    42 1   
    42    21    22 ar  
    43    21    25 1   
    44    22    23 ar  
    45    22    43 1   
    46    23    24 ar  
    47    23    44 1   
    48    24    45 1   
@<TRIPOS>SUBSTRUCTURE
     1 9HL         1 TEMP              0 ****  ****    0 ROOT
