@<TRIPOS>MOLECULE
molecule
   45    48     1     0     0
SMALL
bcc


@<TRIPOS>ATOM
      1 N01          0.0000     0.0000     0.0000 nc         1 9HL      -0.690000
      2 C02          1.3040     0.0000     0.0000 cd         1 9HL       0.431400
      3 N03          1.7370     0.0000     1.2900 na         1 9HL      -0.215700
      4 C04          0.6200    -0.0010     2.0870 cd         1 9HL      -0.240600
      5 C05         -0.4460    -0.0020     1.2650 cc         1 9HL       0.312200
      6 C1'          9.7140    -3.8770    -5.1810 ca         1 9HL      -0.019300
      7 N11          4.0330     0.0010     0.8200 nb         1 9HL      -0.765000
      8 C12          3.0630    -0.0000     1.7200 ca         1 9HL       0.794500
      9 N13          3.3210    -0.0010     3.0170 nb         1 9HL      -0.757000
     10 C14          4.5670     0.0000     3.4600 ca         1 9HL       0.490200
     11 C15          5.6090     0.0020     2.5460 ca         1 9HL      -0.397600
     12 C16          5.3020     0.0020     1.1930 ca         1 9HL       0.497600
     13 C17          6.4010     0.0030     0.1610 c3         1 9HL      -0.130700
     14 C18          6.2070    -1.1790    -0.7910 c3         1 9HL       0.161800
     15 N19          7.2780    -1.1780    -1.7960 n7         1 9HL      -0.821200
     16 C2'         10.1210    -5.1760    -4.9410 ca         1 9HL      -0.160000
     17 C20          7.1250    -2.3020    -2.7300 c3         1 9HL       0.192800
     18 C21          8.2560    -2.2680    -3.7590 cx         1 9HL      -0.121700
     19 C22          7.8710    -2.0490    -5.2240 cx         1 9HL      -0.136400
     20 C23          8.3410    -3.4270    -4.7540 cx         1 9HL      -0.085400
     21 C3'         11.3830    -5.5900    -5.3340 ca         1 9HL       0.136900
     22 C4'         12.2350    -4.7020    -5.9670 ca         1 9HL      -0.171000
     23 C5'         11.8260    -3.4040    -6.2080 ca         1 9HL      -0.099000
     24 C6'         10.5680    -2.9900    -5.8100 ca         1 9HL      -0.147000
     25 F7'         11.7830    -6.8590    -5.0980 f          1 9HL      -0.140900
     26 H02          1.9370     0.0010    -0.8790 h5         1 9HL       0.080100
     27 H04          0.6000    -0.0010     3.1700 h4         1 9HL       0.191000
     28 H05         -1.4850    -0.0020     1.5720 h4         1 9HL       0.046100
     29 H14          4.7710     0.0000     4.5240 h4         1 9HL       0.039100
     30 H15          6.6390     0.0020     2.8800 ha         1 9HL       0.155000
     31 H17          6.3680     0.9280    -0.4010 hc         1 9HL       0.069700
     32 H17A         7.3610    -0.0850     0.6560 hc         1 9HL       0.069700
     33 H18          6.2400    -2.1050    -0.2290 h1         1 9HL       0.045200
     34 H18A         5.2480    -1.0910    -1.2850 h1         1 9HL       0.045200
     35 HN19         7.2580    -0.3160    -2.3040 hn         1 9HL       0.355800
     36 H2'          9.4530    -5.8700    -4.4450 ha         1 9HL       0.146000
     37 H20          6.1720    -2.2200    -3.2390 h1         1 9HL       0.038700
     38 H20A         7.1630    -3.2350    -2.1820 h1         1 9HL       0.038700
     39 H21          9.2110    -1.8440    -3.4730 hc         1 9HL       0.100700
     40 H22          6.8100    -1.9590    -5.4200 hc         1 9HL       0.078700
     41 H22A         8.5850    -1.4880    -5.8160 hc         1 9HL       0.078700
     42 H23          7.5550    -4.1650    -4.6580 hc         1 9HL       0.089700
     43 H4'         13.2210    -5.0250    -6.2770 ha         1 9HL       0.145000
     44 H5'         12.4940    -2.7090    -6.7020 ha         1 9HL       0.136000
     45 H6'         10.2480    -1.9730    -5.9980 ha         1 9HL       0.136000
@<TRIPOS>BOND
     1     1     2 2
     2     1     5 1
     3     2     3 1
     4     3     4 1
     5     3     8 1
     6     4     5 2
     7     6    16 ar
     8     6    20 1
     9     6    24 ar
    10     7     8 ar
    11     7    12 ar
    12     8     9 ar
    13     9    10 ar
    14    10    11 ar
    15    11    12 ar
    16    12    13 1
    17    13    14 1
    18    14    15 1
    19    15    17 1
    20    16    21 ar
    21    17    18 1
    22    18    19 1
    23    18    20 1
    24    19    20 1
    25    21    22 ar
    26    21    25 1
    27    22    23 ar
    28    23    24 ar
    29     2    26 1
    30     4    27 1
    31     5    28 1
    32    10    29 1
    33    11    30 1
    34    13    31 1
    35    13    32 1
    36    14    33 1
    37    14    34 1
    38    15    35 1
    39    16    36 1
    40    17    37 1
    41    17    38 1
    42    18    39 1
    43    19    40 1
    44    19    41 1
    45    20    42 1
    46    22    43 1
    47    23    44 1
    48    24    45 1
@<TRIPOS>SUBSTRUCTURE
     1 9HL         1 TEMP              0 ****  ****    0 ROOT
