@<TRIPOS>MOLECULE
9HN
   64    67     1     0     0
SMALL
bcc


@<TRIPOS>ATOM
      1 CBG          0.0000     0.0000     0.0000 c3         1 9HN      -0.032433
      2 CBF          1.5300     0.0000     0.0000 c3         1 9HN       0.177800
      3 CBH          2.0410     0.0000     1.4420 c3         1 9HN      -0.032433
      4 CBI          2.0400    -1.2500    -0.7210 c3         1 9HN      -0.032433
      5 OBD          2.0130     1.1850    -0.6850 os         1 9HN      -0.405900
      6 CBA          3.3420     1.3030    -0.8360 c          1 9HN       0.704100
      7 OBE          4.0820     0.4900    -0.3340 o          1 9HN      -0.569000
      8 CBD          3.9120     2.4490    -1.6300 c3         1 9HN      -0.139700
      9 CAZ          4.2290     1.9770    -3.0510 c3         1 9HN       0.024800
     10 CBB          2.9480     1.6020    -3.7530 c2         1 9HN      -0.169200
     11 CBC          2.6450     2.1560    -4.9010 c2         1 9HN      -0.157000
     12 CAF          5.1940     2.9470    -0.9620 c3         1 9HN       0.147200
     13 NAE          4.9080     3.3590     0.4170 n2         1 9HN      -0.490900
     14 CAG          5.7240     4.1490    -1.7000 cc         1 9HN       0.128800
     15 NAH          6.8750     4.2720    -2.2940 nd         1 9HN      -0.295000
     16 NAI          6.9890     5.4590    -2.7790 nd         1 9HN      -0.324000
     17 CAJ          5.9060     6.1470    -2.5280 cc         1 9HN       0.159800
     18 CAU          5.6450     7.5830    -2.9100 c3         1 9HN       0.009600
     19 NAA          5.0600     5.3230    -1.8570 na         1 9HN       0.293200
     20 CAB          3.7550     5.5910    -1.4380 ca         1 9HN      -0.206200
     21 CAQ          2.9590     6.4030    -2.2390 ca         1 9HN      -0.068000
     22 CAR          1.6530     6.6700    -1.8880 ca         1 9HN      -0.182000
     23 CAS          1.1230     6.1260    -0.7270 ca         1 9HN       0.164100
     24 OAV         -0.1700     6.3760    -0.3880 os         1 9HN      -0.299900
     25 CAW         -0.9530     7.1210    -1.3230 c3         1 9HN       0.243700
     26 CAT          1.9050     5.3280     0.0850 ca         1 9HN      -0.112000
     27 CAC          3.2400     5.0630    -0.2510 ca         1 9HN      -0.107900
     28 CAD          4.0440     4.2750     0.6880 ce         1 9HN       0.483500
     29 CAK          3.8370     4.5680     2.1260 ca         1 9HN      -0.156900
     30 CAL          4.1050     3.5900     3.0840 ca         1 9HN      -0.062500
     31 CAM          3.9100     3.8700     4.4210 ca         1 9HN      -0.107500
     32 CAN          3.4510     5.1160     4.8110 ca         1 9HN      -0.020600
     33 ClA          3.2080     5.4600     6.4960 cl         1 9HN      -0.024400
     34 CAO          3.1850     6.0890     3.8640 ca         1 9HN      -0.107500
     35 CAP          3.3810     5.8240     2.5250 ca         1 9HN      -0.062500
     36 HBI         -0.3610    -0.8840     0.5110 hc         1 9HN       0.020478
     37 HBG         -0.3610    -0.0000    -1.0210 hc         1 9HN       0.020478
     38 HBH         -0.3610     0.8850     0.5100 hc         1 9HN       0.020478
     39 HBJ          1.8750     0.9750     1.8840 hc         1 9HN       0.020478
     40 HBK          1.5090    -0.7510     2.0140 hc         1 9HN       0.020478
     41 HBL          3.1010    -0.2240     1.4500 hc         1 9HN       0.020478
     42 HBN          1.9470    -1.1120    -1.7920 hc         1 9HN       0.020478
     43 HBO          3.0810    -1.4140    -0.4680 hc         1 9HN       0.020478
     44 HBM          1.4540    -2.1080    -0.4150 hc         1 9HN       0.020478
     45 H1           3.1890     3.2550    -1.6700 hc         1 9HN       0.057700
     46 HA0          4.7190     2.7750    -3.5960 hc         1 9HN       0.038200
     47 HA1          4.8830     1.1150    -3.0080 hc         1 9HN       0.038200
     48 HBB          2.2790     0.8750    -3.3090 ha         1 9HN       0.112000
     49 HBC          3.3140     2.8830    -5.3450 ha         1 9HN       0.085000
     50 HBD          1.7250     1.8870    -5.4050 ha         1 9HN       0.085000
     51 HAF          5.9410     2.1620    -0.9600 h1         1 9HN       0.089700
     52 HAV          5.0250     7.6130    -3.7980 hc         1 9HN       0.017700
     53 HAW          6.5870     8.0790    -3.1110 hc         1 9HN       0.017700
     54 HAU          5.1370     8.0860    -2.0970 hc         1 9HN       0.017700
     55 HAQ          3.3690     6.8290    -3.1460 ha         1 9HN       0.129000
     56 HAR          1.0590     7.3510    -2.4870 ha         1 9HN       0.130000
     57 HAX         -0.5380     8.1170    -1.4280 h1         1 9HN       0.001700
     58 HAY         -1.9730     7.1910    -0.9650 h1         1 9HN       0.001700
     59 HAZ         -0.9400     6.6220    -2.2840 h1         1 9HN       0.001700
     60 HAT          1.4840     4.9060     0.9900 ha         1 9HN       0.142000
     61 HAL          4.4640     2.6150     2.7800 ha         1 9HN       0.123000
     62 HAM          4.1170     3.1120     5.1680 ha         1 9HN       0.117500
     63 HAO          2.8280     7.0640     4.1750 ha         1 9HN       0.117500
     64 HAP          3.1720     6.5860     1.7840 ha         1 9HN       0.123000
@<TRIPOS>BOND
     1     1     2 1   
     2     1    36 1   
     3     1    37 1   
     4     1    38 1   
     5     2     3 1   
     6     2     4 1   
     7     2     5 1   
     8     3    39 1   
     9     3    40 1   
    10     3    41 1   
    11     4    42 1   
    12     4    43 1   
    13     4    44 1   
    14     5     6 1   
    15     6     7 2   
    16     6     8 1   
    17     8     9 1   
    18     8    12 1   
    19     8    45 1   
    20     9    10 1   
    21     9    46 1   
    22     9    47 1   
    23    10    11 2   
    24    10    48 1   
    25    11    49 1   
    26    11    50 1   
    27    12    13 1   
    28    12    14 1   
    29    12    51 1   
    30    13    28 2   
    31    14    15 2   
    32    14    19 1   
    33    15    16 1   
    34    16    17 2   
    35    17    18 1   
    36    17    19 1   
    37    18    52 1   
    38    18    53 1   
    39    18    54 1   
    40    19    20 1   
    41    20    21 ar  
    42    20    27 ar  
    43    21    22 ar  
    44    21    55 1   
    45    22    23 ar  
    46    22    56 1   
    47    23    24 1   
    48    23    26 ar  
    49    24    25 1   
    50    25    57 1   
    51    25    58 1   
    52    25    59 1   
    53    26    27 ar  
    54    26    60 1   
    55    27    28 1   
    56    28    29 1   
    57    29    30 ar  
    58    29    35 ar  
    59    30    31 ar  
    60    30    61 1   
    61    31    32 ar  
    62    31    62 1   
    63    32    33 1   
    64    32    34 ar  
    65    34    35 ar  
    66    34    63 1   
    67    35    64 1   
@<TRIPOS>SUBSTRUCTURE
     1 9HN         1 TEMP              0 ****  ****    0 ROOT
