@<TRIPOS>MOLECULE
molecule
   64    67     1     0     0
SMALL
bcc


@<TRIPOS>ATOM
      1 CBG          0.0000     0.0000     0.0000 c3         1 9HN      -0.107767
      2 CBF          1.5300     0.0000     0.0000 c3         1 9HN       0.158800
      3 CBH          2.0410     0.0000     1.4420 c3         1 9HN      -0.107767
      4 CBI          2.0400    -1.2500    -0.7210 c3         1 9HN      -0.107767
      5 OBD          2.0130     1.1850    -0.6850 os         1 9HN      -0.422900
      6 CBA          3.3420     1.3030    -0.8360 c          1 9HN       0.644100
      7 OBE          4.0820     0.4900    -0.3340 o          1 9HN      -0.540000
      8 CBD          3.9120     2.4490    -1.6300 c3         1 9HN      -0.137700
      9 CAZ          4.2290     1.9770    -3.0510 c3         1 9HN      -0.038200
     10 CBB          2.9480     1.6020    -3.7530 c2         1 9HN      -0.179200
     11 CBC          2.6450     2.1560    -4.9010 c2         1 9HN      -0.215000
     12 CAF          5.1940     2.9470    -0.9620 c3         1 9HN       0.130200
     13 NAE          4.9080     3.3590     0.4170 n2         1 9HN      -0.567900
     14 CAG          5.7240     4.1490    -1.7000 cc         1 9HN       0.343800
     15 NAH          6.8750     4.2720    -2.2940 nd         1 9HN      -0.330000
     16 NAI          6.9890     5.4590    -2.7790 nd         1 9HN      -0.347000
     17 CAJ          5.9060     6.1470    -2.5280 cc         1 9HN       0.367800
     18 CAU          5.6450     7.5830    -2.9100 c3         1 9HN      -0.106400
     19 NAA          5.0600     5.3230    -1.8570 na         1 9HN      -0.239800
     20 CAB          3.7550     5.5910    -1.4380 ca         1 9HN      -0.022200
     21 CAQ          2.9590     6.4030    -2.2390 ca         1 9HN      -0.105000
     22 CAR          1.6530     6.6700    -1.8880 ca         1 9HN      -0.191000
     23 CAS          1.1230     6.1260    -0.7270 ca         1 9HN       0.141100
     24 OAV         -0.1700     6.3760    -0.3880 os         1 9HN      -0.320900
     25 CAW         -0.9530     7.1210    -1.3230 c3         1 9HN       0.126700
     26 CAT          1.9050     5.3280     0.0850 ca         1 9HN      -0.121000
     27 CAC          3.2400     5.0630    -0.2510 ca         1 9HN      -0.146900
     28 CAD          4.0440     4.2750     0.6880 ce         1 9HN       0.527500
     29 CAK          3.8370     4.5680     2.1260 ca         1 9HN      -0.146900
     30 CAL          4.1050     3.5900     3.0840 ca         1 9HN      -0.084500
     31 CAM          3.9100     3.8700     4.4210 ca         1 9HN      -0.132000
     32 CAN          3.4510     5.1160     4.8110 ca         1 9HN       0.044400
     33 ClA          3.2080     5.4600     6.4960 cl         1 9HN      -0.106400
     34 CAO          3.1850     6.0890     3.8640 ca         1 9HN      -0.132000
     35 CAP          3.3810     5.8240     2.5250 ca         1 9HN      -0.084500
     36 HBI         -0.3610    -0.8850     0.5100 hc         1 9HN       0.050256
     37 HBG         -0.3610     0.8840     0.5110 hc         1 9HN       0.050256
     38 HBH         -0.3610     0.0000    -1.0210 hc         1 9HN       0.050256
     39 HBJ          1.8750     0.9750     1.8840 hc         1 9HN       0.050256
     40 HBK          1.5090    -0.7510     2.0140 hc         1 9HN       0.050256
     41 HBL          3.1010    -0.2240     1.4500 hc         1 9HN       0.050256
     42 HBN          1.9450    -1.1130    -1.7920 hc         1 9HN       0.050256
     43 HBO          1.4550    -2.1080    -0.4140 hc         1 9HN       0.050256
     44 HBM          3.0810    -1.4130    -0.4690 hc         1 9HN       0.050256
     45 H1           3.1890     3.2550    -1.6700 hc         1 9HN       0.084700
     46 HA0          4.8830     1.1150    -3.0080 hc         1 9HN       0.069200
     47 HA1          4.7190     2.7750    -3.5960 hc         1 9HN       0.069200
     48 HBB          2.2800     0.8750    -3.3090 ha         1 9HN       0.132000
     49 HBC          1.7250     1.8870    -5.4060 ha         1 9HN       0.113500
     50 HBD          3.3140     2.8830    -5.3450 ha         1 9HN       0.113500
     51 HAF          5.9410     2.1620    -0.9600 h1         1 9HN       0.135700
     52 HAV          6.5870     8.0790    -3.1110 hc         1 9HN       0.059700
     53 HAW          5.0250     7.6130    -3.7980 hc         1 9HN       0.059700
     54 HAU          5.1370     8.0860    -2.0970 hc         1 9HN       0.059700
     55 HAQ          3.3690     6.8290    -3.1460 ha         1 9HN       0.151000
     56 HAR          1.0580     7.3470    -2.4890 ha         1 9HN       0.148000
     57 HAX         -1.9730     7.1890    -0.9670 h1         1 9HN       0.045700
     58 HAY         -0.5400     8.1180    -1.4260 h1         1 9HN       0.045700
     59 HAZ         -0.9380     6.6230    -2.2840 h1         1 9HN       0.045700
     60 HAT          1.4840     4.9060     0.9900 ha         1 9HN       0.168000
     61 HAL          4.4640     2.6150     2.7800 ha         1 9HN       0.154000
     62 HAM          4.1170     3.1120     5.1680 ha         1 9HN       0.148500
     63 HAO          2.8280     7.0640     4.1750 ha         1 9HN       0.148500
     64 HAP          3.1720     6.5860     1.7840 ha         1 9HN       0.154000
@<TRIPOS>BOND
     1    33    32 1
     2    32    31 ar
     3    32    34 ar
     4    31    30 ar
     5    34    35 ar
     6    30    29 ar
     7     4     2 1
     8    35    29 ar
     9    29    28 1
    10     2     3 1
    11     2     1 1
    12     2     5 1
    13     7     6 2
    14    28    13 2
    15    28    27 1
    16     6     5 1
    17     6     8 1
    18    13    12 1
    19    26    27 ar
    20    26    23 ar
    21     8    12 1
    22     8     9 1
    23    27    20 ar
    24    12    14 1
    25    24    23 1
    26    24    25 1
    27    23    22 ar
    28    14    19 1
    29    14    15 2
    30     9    10 1
    31    20    19 1
    32    20    21 ar
    33    19    17 1
    34    15    16 1
    35    22    21 ar
    36    10    11 2
    37    17    16 2
    38    17    18 1
    39     1    36 1
    40     1    37 1
    41     1    38 1
    42     3    39 1
    43     3    40 1
    44     3    41 1
    45     4    42 1
    46     4    43 1
    47     4    44 1
    48     8    45 1
    49     9    46 1
    50     9    47 1
    51    10    48 1
    52    11    49 1
    53    11    50 1
    54    12    51 1
    55    18    52 1
    56    18    53 1
    57    18    54 1
    58    21    55 1
    59    22    56 1
    60    25    57 1
    61    25    58 1
    62    25    59 1
    63    26    60 1
    64    30    61 1
    65    31    62 1
    66    34    63 1
    67    35    64 1
@<TRIPOS>SUBSTRUCTURE
     1 9HN         1 TEMP              0 ****  ****    0 ROOT
