@<TRIPOS>MOLECULE
molecule
   52    51     1     0     0
SMALL
bcc


@<TRIPOS>ATOM
      1 O2           0.0000     0.0000     0.0000 o          1 9HO      -0.857800
      2 C1           1.2080     0.0000     0.0000 c          1 9HO       0.891600
      3 O1           1.8800     0.0000     1.1610 o          1 9HO      -0.857800
      4 C2           1.9610    -0.0060    -1.3060 c3         1 9HO      -0.183400
      5 C3           0.9660    -0.0120    -2.4680 c3         1 9HO      -0.063400
      6 C4           1.7300    -0.0170    -3.7930 c3         1 9HO      -0.088400
      7 C5           0.7350    -0.0240    -4.9560 c3         1 9HO      -0.081400
      8 C6           1.5000    -0.0300    -6.2820 c3         1 9HO      -0.082400
      9 C7           0.5050    -0.0360    -7.4440 c3         1 9HO      -0.084400
     10 C8           1.2700    -0.0420    -8.7690 c3         1 9HO      -0.086400
     11 C9           0.2740    -0.0480    -9.9310 c3         1 9HO       0.160300
     12 C10          1.0230     0.0690   -11.2340 c2         1 9HO      -0.083200
     13 C11          0.8440    -0.8390   -12.1870 ce         1 9HO      -0.252000
     14 C12          1.5750    -0.7240   -13.4590 ce         1 9HO      -0.309000
     15 C13          1.4700    -1.6810   -14.3750 c2         1 9HO      -0.355200
     16 C14          0.4960    -2.8120   -14.1720 c3         1 9HO      -0.148200
     17 C15         -0.4230    -2.9190   -15.3910 c3         1 9HO      -0.036400
     18 C16         -1.4110    -4.0690   -15.1850 c3         1 9HO      -0.087400
     19 C17         -2.3310    -4.1750   -16.4040 c3         1 9HO      -0.082400
     20 C18         -3.3190    -5.3250   -16.1990 c3         1 9HO      -0.092100
     21 O3          -0.4670    -1.2680    -9.9170 oh         1 9HO      -0.603800
     22 H12C         2.5840    -0.8900    -1.3590 hc         1 9HO       0.027200
     23 H22C         2.5830     0.8790    -1.3680 hc         1 9HO       0.027200
     24 H13C         0.3430     0.8720    -2.4140 hc         1 9HO       0.044700
     25 H23C         0.3440    -0.8970    -2.4060 hc         1 9HO       0.044700
     26 H14C         2.3540    -0.9020    -3.8470 hc         1 9HO       0.029700
     27 H24C         2.3520     0.8670    -3.8550 hc         1 9HO       0.029700
     28 H15C         0.1130    -0.9080    -4.8950 hc         1 9HO       0.038700
     29 H25C         0.1120     0.8610    -4.9030 hc         1 9HO       0.038700
     30 H16C         2.1220     0.8550    -6.3440 hc         1 9HO       0.038700
     31 H26C         2.1230    -0.9140    -6.3350 hc         1 9HO       0.038700
     32 H17C        -0.1170    -0.9200    -7.3820 hc         1 9HO       0.042200
     33 H27C        -0.1180     0.8490    -7.3900 hc         1 9HO       0.042200
     34 H18C         1.8930     0.8420    -8.8310 hc         1 9HO       0.056700
     35 H28C         1.8930    -0.9270    -8.8230 hc         1 9HO       0.056700
     36 H9          -0.4060     0.7900    -9.8290 h1         1 9HO       0.051700
     37 H10          1.7070     0.8940   -11.3930 ha         1 9HO       0.158000
     38 H3          -1.3890    -1.0760    -9.8810 ho         1 9HO       0.403000
     39 H11          0.1600    -1.6630   -12.0280 ha         1 9HO       0.122000
     40 H12          0.5360    -0.4310   -13.3740 ha         1 9HO       0.322000
     41 H13          1.7220    -2.5460   -13.7740 ha         1 9HO       0.325000
     42 H114         1.0410    -3.7400   -14.0480 hc         1 9HO       0.035200
     43 H214        -0.0990    -2.6220   -13.2870 hc         1 9HO       0.035200
     44 H115        -0.9680    -1.9920   -15.5150 hc         1 9HO       0.054200
     45 H215         0.1720    -3.1090   -16.2760 hc         1 9HO       0.054200
     46 H116        -2.0060    -3.8790   -14.3000 hc         1 9HO       0.041700
     47 H216        -0.8660    -4.9970   -15.0620 hc         1 9HO       0.041700
     48 H117        -2.8760    -3.2470   -16.5270 hc         1 9HO       0.041700
     49 H217        -1.7360    -4.3640   -17.2890 hc         1 9HO       0.041700
     50 H118        -3.9180    -5.1330   -15.3160 hc         1 9HO       0.033033
     51 H218        -2.7740    -6.2520   -16.0710 hc         1 9HO       0.033033
     52 H318        -3.9670    -5.4030   -17.0640 hc         1 9HO       0.033033
@<TRIPOS>BOND
     1     1     2 1
     2     2     3 1
     3     2     4 1
     4     4     5 1
     5     5     6 1
     6     6     7 1
     7     7     8 1
     8     8     9 1
     9     9    10 1
    10    10    11 1
    11    11    12 1
    12    11    21 1
    13    12    13 2
    14    13    14 1
    15    14    15 2
    16    15    16 1
    17    16    17 1
    18    17    18 1
    19    18    19 1
    20    19    20 1
    21     4    22 1
    22     4    23 1
    23     5    24 1
    24     5    25 1
    25     6    26 1
    26     6    27 1
    27     7    28 1
    28     7    29 1
    29     8    30 1
    30     8    31 1
    31     9    32 1
    32     9    33 1
    33    10    34 1
    34    10    35 1
    35    11    36 1
    36    12    37 1
    37    21    38 1
    38    13    39 1
    39    14    40 1
    40    15    41 1
    41    16    42 1
    42    16    43 1
    43    17    44 1
    44    17    45 1
    45    18    46 1
    46    18    47 1
    47    19    48 1
    48    19    49 1
    49    20    50 1
    50    20    51 1
    51    20    52 1
@<TRIPOS>SUBSTRUCTURE
     1 9HO         1 TEMP              0 ****  ****    0 ROOT
