@<TRIPOS>MOLECULE
9HO
   52    51     1     0     0
SMALL
bcc


@<TRIPOS>ATOM
      1 O2          0.2560    4.3360   -2.7800 o         1 9HO     -0.853800
      2 C1          1.3720    3.8990   -2.3730 c         1 9HO      0.907600
      3 O1          1.9280    4.2800   -1.3030 o         1 9HO     -0.853800
      4 C2          2.1130    2.8610   -3.2340 c3        1 9HO     -0.193400
      5 C3          1.1830    1.7690   -3.7010 c3        1 9HO     -0.065400
      6 C4          1.8410    0.8610   -4.7190 c3        1 9HO     -0.078400
      7 C5          0.9010   -0.2350   -5.1740 c3        1 9HO     -0.078400
      8 C6          1.5390   -1.1110   -6.2310 c3        1 9HO     -0.078400
      9 C7          0.5880   -2.1920   -6.6980 c3        1 9HO     -0.080400
     10 C8          1.1980   -3.0170   -7.8110 c3        1 9HO     -0.071400
     11 C9          0.2380   -4.1110   -8.2810 c3        1 9HO      0.168300
     12 C10         0.5980   -4.6080   -9.6450 c2        1 9HO     -0.194200
     13 C11         0.2990   -3.9970  -10.7990 ce        1 9HO     -0.131000
     14 C12        -0.4180   -2.7450  -10.9160 ce        1 9HO     -0.147000
     15 C13        -0.7920   -2.1870  -12.0760 c2        1 9HO     -0.152200
     16 C14        -0.5350   -2.7640  -13.4160 c3        1 9HO     -0.052200
     17 C15        -1.1130   -1.9090  -14.5260 c3        1 9HO     -0.078400
     18 C16        -0.8390   -2.5190  -15.8840 c3        1 9HO     -0.079400
     19 C17        -1.4150   -1.6680  -16.9960 c3        1 9HO     -0.080400
     20 C18        -1.1450   -2.2700  -18.3500 c3        1 9HO     -0.092100
     21 O3          0.3340   -5.1710   -7.3310 oh        1 9HO     -0.595800
     22 H12C        2.9590    2.4270   -2.6450 hc        1 9HO      0.018700
     23 H22C        2.5470    3.3970   -4.1160 hc        1 9HO      0.018700
     24 H13C        0.8470    1.1610   -2.8200 hc        1 9HO      0.043700
     25 H23C        0.2660    2.2440   -4.1440 hc        1 9HO      0.043700
     26 H14C        2.1670    1.4670   -5.6050 hc        1 9HO      0.026200
     27 H24C        2.7650    0.4040   -4.2760 hc        1 9HO      0.026200
     28 H15C        0.6030   -0.8640   -4.2940 hc        1 9HO      0.036700
     29 H25C       -0.0370    0.2250   -5.5830 hc        1 9HO      0.036700
     30 H16C        1.8490   -0.4790   -7.1040 hc        1 9HO      0.035200
     31 H26C        2.4700   -1.5820   -5.8180 hc        1 9HO      0.035200
     32 H17C       -0.3650   -1.7210   -7.0560 hc        1 9HO      0.042200
     33 H27C        0.3250   -2.8660   -5.8400 hc        1 9HO      0.042200
     34 H18C        2.1480   -3.4920   -7.4550 hc        1 9HO      0.053700
     35 H28C        1.4420   -2.3590   -8.6850 hc        1 9HO      0.053700
     36 H9         -0.8200   -3.7170   -8.2820 h1        1 9HO      0.040700
     37 H10         1.1620   -5.5560   -9.6480 ha        1 9HO      0.128000
     38 H3         -0.3280   -5.8250   -7.5800 ho        1 9HO      0.393000
     39 H11         0.6140   -4.4600  -11.7520 ha        1 9HO      0.117000
     40 H12        -0.6500   -2.2300   -9.9660 ha        1 9HO      0.132000
     41 H13        -1.3300   -1.2230  -12.0670 ha        1 9HO      0.125000
     42 H114        0.5740   -2.8750  -13.5710 hc        1 9HO      0.048200
     43 H214       -0.9760   -3.7970  -13.4740 hc        1 9HO      0.048200
     44 H115       -0.6680   -0.8800  -14.4790 hc        1 9HO      0.043200
     45 H215       -2.2200   -1.7990  -14.3790 hc        1 9HO      0.043200
     46 H116       -1.2830   -3.5480  -15.9310 hc        1 9HO      0.038700
     47 H216        0.2680   -2.6290  -16.0310 hc        1 9HO      0.038700
     48 H117       -0.9710   -0.6380  -16.9460 hc        1 9HO      0.039700
     49 H217       -2.5220   -1.5570  -16.8460 hc        1 9HO      0.039700
     50 H118       -0.0470   -2.3650  -18.5280 hc        1 9HO      0.031033
     51 H218       -1.6010   -3.2870  -18.4280 hc        1 9HO      0.031033
     52 H318       -1.5780   -1.6270  -19.1540 hc        1 9HO      0.031033
@<TRIPOS>BOND
     1    1    2 1   
     2    2    3 1   
     3    2    4 1   
     4    4    5 1   
     5    4   22 1   
     6    4   23 1   
     7    5    6 1   
     8    5   24 1   
     9    5   25 1   
    10    6    7 1   
    11    6   26 1   
    12    6   27 1   
    13    7    8 1   
    14    7   28 1   
    15    7   29 1   
    16    8    9 1   
    17    8   30 1   
    18    8   31 1   
    19    9   10 1   
    20    9   32 1   
    21    9   33 1   
    22   10   11 1   
    23   10   34 1   
    24   10   35 1   
    25   11   12 1   
    26   11   21 1   
    27   11   36 1   
    28   12   13 2   
    29   12   37 1   
    30   13   14 1   
    31   13   39 1   
    32   14   15 2   
    33   14   40 1   
    34   15   16 1   
    35   15   41 1   
    36   16   17 1   
    37   16   42 1   
    38   16   43 1   
    39   17   18 1   
    40   17   44 1   
    41   17   45 1   
    42   18   19 1   
    43   18   46 1   
    44   18   47 1   
    45   19   20 1   
    46   19   48 1   
    47   19   49 1   
    48   20   50 1   
    49   20   51 1   
    50   20   52 1   
    51   21   38 1   
@<TRIPOS>SUBSTRUCTURE
     1 9HO         1 TEMP              0 ****  ****    0 ROOT
