@<TRIPOS>MOLECULE
9HP
   33    36     1     0     0
SMALL
bcc


@<TRIPOS>ATOM
      1 C1          0.0180   -0.0090   -0.0190 ca        1 9HP     -0.138300
      2 C2          1.4330    0.0250   -0.0050 ca        1 9HP     -0.006000
      3 C3          2.1010    0.0230    1.2410 ca        1 9HP     -0.230300
      4 C4          1.3450   -0.0120    2.4080 ca        1 9HP      0.389200
      5 N5         -0.0150   -0.0460    2.4180 nb        1 9HP     -0.662000
      6 C6         -0.6440   -0.0450    1.2450 ca        1 9HP      0.414200
      7 C10        -0.6810   -0.0070   -1.2740 ca        1 9HP     -0.118300
      8 C11         0.0610    0.0270   -2.4920 ca        1 9HP      0.395600
      9 C12         1.5070    0.0600   -2.4350 ca        1 9HP     -0.147300
     10 C13         2.1550    0.0590   -1.2430 ca        1 9HP     -0.123000
     11 C16        -2.0930   -0.0370   -1.3630 ca        1 9HP     -0.083000
     12 C17        -2.7130   -0.0350   -2.6030 cp        1 9HP     -0.136300
     13 C18        -1.8760   -0.0000   -3.7620 ca        1 9HP      0.416200
     14 N19        -0.5520    0.0300   -3.7220 nb        1 9HP     -0.653000
     15 C22        -6.3610    0.6460   -2.0030 ca        1 9HP     -0.185000
     16 C23        -4.9760    0.6700   -1.8720 ca        1 9HP     -0.079000
     17 C24        -4.1620   -0.0660   -2.7450 cp        1 9HP     -0.079000
     18 C25        -4.7600   -0.8330   -3.7580 ca        1 9HP     -0.079000
     19 C26        -6.1410   -0.8710   -3.9020 ca        1 9HP     -0.185000
     20 C27        -6.9420   -0.1260   -3.0190 ca        1 9HP      0.133100
     21 O32        -8.3000   -0.2020   -3.2120 oh        1 9HP     -0.494100
     22 HC3         3.1980    0.0490    1.2770 ha        1 9HP      0.146000
     23 HC4         1.8230   -0.0140    3.4040 h4        1 9HP      0.025100
     24 HC6        -1.7470   -0.0750    1.3000 h4        1 9HP      0.021100
     25 H12         2.0640    0.0860   -3.3860 ha        1 9HP      0.155000
     26 H13         3.2550    0.0850   -1.1970 ha        1 9HP      0.141000
     27 H16        -2.7040   -0.0710   -0.4480 ha        1 9HP      0.143000
     28 H18        -2.3330    0.0110   -4.7690 h4        1 9HP      0.028100
     29 H23        -4.5160    1.2810   -1.0800 ha        1 9HP      0.138500
     30 H25        -4.1280   -1.4210   -4.4420 ha        1 9HP      0.138500
     31 H26        -6.6160   -1.4720   -4.6890 ha        1 9HP      0.145500
     32 H32        -8.7290    0.3520   -2.5430 ho        1 9HP      0.422000
     33 H22        -6.9930    1.2280   -1.3180 ha        1 9HP      0.145500
@<TRIPOS>BOND
     1    1    2 ar  
     2    1    6 ar  
     3    1    7 ar  
     4    2    3 ar  
     5    2   10 ar  
     6    3    4 ar  
     7    3   22 1   
     8    4    5 ar  
     9    4   23 1   
    10    5    6 ar  
    11    6   24 1   
    12    7    8 ar  
    13    7   11 ar  
    14    8    9 ar  
    15    8   14 ar  
    16    9   10 ar  
    17    9   25 1   
    18   10   26 1   
    19   11   12 ar  
    20   11   27 1   
    21   12   13 ar  
    22   12   17 1   
    23   13   14 ar  
    24   13   28 1   
    25   15   16 ar  
    26   15   20 ar  
    27   15   33 1   
    28   16   17 ar  
    29   16   29 1   
    30   17   18 ar  
    31   18   19 ar  
    32   18   30 1   
    33   19   20 ar  
    34   19   31 1   
    35   20   21 1   
    36   21   32 1   
@<TRIPOS>SUBSTRUCTURE
     1 9HP         1 TEMP              0 ****  ****    0 ROOT
