@<TRIPOS>MOLECULE
molecule
   33    36     1     0     0
SMALL
bcc


@<TRIPOS>ATOM
      1 C1           0.0000     0.0000     0.0000 ca         1 9HP      -0.152300
      2 C2           1.4150     0.0000     0.0000 ca         1 9HP      -0.005000
      3 C3           2.0770     0.0000     1.2370 ca         1 9HP      -0.237300
      4 C4           1.3310    -0.0010     2.3800 ca         1 9HP       0.417200
      5 N5           0.0070    -0.0010     2.3480 nb         1 9HP      -0.689000
      6 C6          -0.6740    -0.0010     1.2210 ca         1 9HP       0.438200
      7 C10         -0.7030    -0.0010    -1.2820 ca         1 9HP      -0.133300
      8 C11          0.0560    -0.0010    -2.4760 ca         1 9HP       0.422600
      9 C12          1.4690    -0.0010    -2.4060 ca         1 9HP      -0.148300
     10 C13          2.1190     0.0000    -1.2230 ca         1 9HP      -0.118000
     11 C16         -2.0970     0.0050    -1.3560 ca         1 9HP      -0.078000
     12 C17         -2.6860    -0.0010    -2.6160 cp         1 9HP      -0.153300
     13 C18         -1.8690    -0.0010    -3.7550 ca         1 9HP       0.438200
     14 N19         -0.5630    -0.0010    -3.6590 nb         1 9HP      -0.676000
     15 C22         -6.3160     0.7740    -2.0310 ca         1 9HP      -0.151000
     16 C23         -4.9430     0.7730    -1.8980 ca         1 9HP      -0.103000
     17 C24         -4.1620    -0.0020    -2.7520 cp         1 9HP      -0.052000
     18 C25         -4.7720    -0.7770    -3.7390 ca         1 9HP      -0.103000
     19 C26         -6.1450    -0.7760    -3.8630 ca         1 9HP      -0.151000
     20 C27         -6.9210    -0.0030    -3.0100 ca         1 9HP       0.111100
     21 O32         -8.2740    -0.0040    -3.1350 oh         1 9HP      -0.521100
     22 HC3          3.1590     0.0000     1.2840 ha         1 9HP       0.143000
     23 HC4          1.8350    -0.0020     3.3390 h4         1 9HP       0.023100
     24 HC6         -1.7570    -0.0010     1.2430 h4         1 9HP       0.025100
     25 H12          2.0440    -0.0010    -3.3250 ha         1 9HP       0.151000
     26 H13          3.2020     0.0010    -1.2120 ha         1 9HP       0.140000
     27 H16         -2.7030     0.0040    -0.4580 ha         1 9HP       0.145000
     28 H18         -2.3280    -0.0050    -4.7360 h4         1 9HP       0.030100
     29 H23         -4.4720     1.3790    -1.1340 ha         1 9HP       0.137500
     30 H25         -4.1680    -1.3800    -4.4050 ha         1 9HP       0.137500
     31 H26         -6.6190    -1.3790    -4.6270 ha         1 9HP       0.144000
     32 H32         -8.6390    -0.6850    -2.5950 ho         1 9HP       0.421000
     33 H22         -6.9240     1.3760    -1.3660 ha         1 9HP       0.144000
@<TRIPOS>BOND
     1     1     2 ar
     2     1     6 ar
     3     1     7 ar
     4     2     3 ar
     5     2    10 ar
     6     3     4 ar
     7     3    22 1
     8     4     5 ar
     9     4    23 1
    10     5     6 ar
    11     6    24 1
    12     7     8 ar
    13     7    11 ar
    14     8     9 ar
    15     8    14 ar
    16     9    10 ar
    17     9    25 1
    18    10    26 1
    19    11    12 ar
    20    11    27 1
    21    12    13 ar
    22    12    17 1
    23    13    14 ar
    24    13    28 1
    25    15    16 ar
    26    15    20 ar
    27    15    33 1
    28    16    17 ar
    29    16    29 1
    30    17    18 ar
    31    18    19 ar
    32    18    30 1
    33    19    20 ar
    34    19    31 1
    35    20    21 1
    36    21    32 1
@<TRIPOS>SUBSTRUCTURE
     1 9HP         1 TEMP              0 ****  ****    0 ROOT
