@<TRIPOS>MOLECULE
molecule
   55    58     1     0     0
SMALL
bcc


@<TRIPOS>ATOM
      1 CBE          0.0000     0.0000     0.0000 c3         1 9HQ      -0.112100
      2 CBD          1.5290     0.0000     0.0000 c3         1 9HQ       0.110000
      3 NAZ          2.0170     0.0000     1.3820 ns         1 9HQ      -0.587900
      4 CAX          3.3420     0.0000     1.6290 c          1 9HQ       0.659100
      5 OBA          4.1310     0.0010     0.7070 o          1 9HQ      -0.590100
      6 CAW          3.8440     0.0010     3.0500 c3         1 9HQ      -0.176700
      7 CAY          3.3340     1.2510     3.7700 c3         1 9HQ      -0.094100
      8 CAJ          5.3740     0.0010     3.0500 c3         1 9HQ       0.139200
      9 NAI          5.8710    -1.2140     2.3970 n2         1 9HQ      -0.547900
     10 CAK          5.8840     0.0020     4.4690 cc         1 9HQ       0.348800
     11 NAS          6.6300     0.9030     5.0420 nd         1 9HQ      -0.333000
     12 NAT          6.8980     0.5380     6.2490 nd         1 9HQ      -0.346000
     13 CAU          6.3240    -0.6080     6.5050 cc         1 9HQ       0.372800
     14 CAV          6.4050    -1.3830     7.7960 c3         1 9HQ      -0.107400
     15 NAL          5.6410    -0.9680     5.3870 na         1 9HQ      -0.246800
     16 CAM          4.8180    -2.0800     5.2060 ca         1 9HQ       0.059800
     17 CAO          4.0650    -2.5230     6.2860 ca         1 9HQ      -0.188000
     18 CAP          3.2080    -3.6030     6.1460 ca         1 9HQ       0.172100
     19 OBB          2.4760    -4.0310     7.2070 os         1 9HQ      -0.321900
     20 CBC          1.6140    -5.1500     6.9920 c3         1 9HQ       0.126700
     21 CAQ          3.0970    -4.2470     4.9200 ca         1 9HQ      -0.231000
     22 CAR          3.8480    -3.8260     3.8480 ca         1 9HQ      -0.050000
     23 CAN          4.7340    -2.7440     3.9780 ca         1 9HQ      -0.225900
     24 CAH          5.5630    -2.3910     2.8220 ce         1 9HQ       0.518500
     25 CAE          6.1150    -3.5270     2.0480 ca         1 9HQ      -0.141900
     26 CAD          6.4410    -3.3630     0.7010 ca         1 9HQ      -0.087500
     27 CAC          6.9540    -4.4240    -0.0150 ca         1 9HQ      -0.133000
     28 CAB          7.1470    -5.6500     0.6000 ca         1 9HQ       0.040400
     29 ClA          7.7880    -6.9820    -0.3090 cl         1 9HQ      -0.108400
     30 CAG          6.8260    -5.8170     1.9360 ca         1 9HQ      -0.133000
     31 CAF          6.3160    -4.7620     2.6630 ca         1 9HQ      -0.087500
     32 HBJ         -0.3610    -0.9580     0.3550 hc         1 9HQ       0.042700
     33 HBI         -0.3610     0.1710    -1.0070 hc         1 9HQ       0.042700
     34 HBH         -0.3610     0.7870     0.6520 hc         1 9HQ       0.042700
     35 HBG          1.8910     0.8840    -0.5110 h1         1 9HQ       0.054200
     36 HBF          1.8900    -0.8850    -0.5110 h1         1 9HQ       0.054200
     37 HBK          1.3680    -0.0520     2.1410 hn         1 9HQ       0.312500
     38 HAY          3.4820    -0.8830     3.5610 hc         1 9HQ       0.073700
     39 HA1          2.8230     1.8930     3.0610 hc         1 9HQ       0.050033
     40 HA0          2.6450     0.9600     4.5540 hc         1 9HQ       0.050033
     41 HAZ          4.1700     1.7850     4.2030 hc         1 9HQ       0.050033
     42 HAJ          5.7470     0.8750     2.5280 h1         1 9HQ       0.132700
     43 HAX          7.2630    -1.0480     8.3650 hc         1 9HQ       0.061700
     44 HAV          5.5020    -1.2200     8.3720 hc         1 9HQ       0.061700
     45 HAW          6.5070    -2.4390     7.5770 hc         1 9HQ       0.061700
     46 HAO          4.1370    -2.0120     7.2380 ha         1 9HQ       0.163000
     47 HBC          2.2010    -6.0020     6.6690 h1         1 9HQ       0.047033
     48 HBD          1.1010    -5.3940     7.9140 h1         1 9HQ       0.047033
     49 HBE          0.8860    -4.9030     6.2280 h1         1 9HQ       0.047033
     50 HAQ          2.4270    -5.0910     4.8110 ha         1 9HQ       0.146000
     51 HAR          3.7560    -4.3330     2.8960 ha         1 9HQ       0.156000
     52 HAD          6.2900    -2.4050     0.2190 ha         1 9HQ       0.157000
     53 HAC          7.2070    -4.2990    -1.0610 ha         1 9HQ       0.146500
     54 HAG          6.9800    -6.7770     2.4130 ha         1 9HQ       0.146500
     55 HAF          6.0650    -4.8940     3.7090 ha         1 9HQ       0.157000
@<TRIPOS>BOND
     1    29    28 1
     2    28    30 ar
     3    28    27 ar
     4    30    31 ar
     5    27    26 ar
     6    31    25 ar
     7    26    25 ar
     8    25    24 1
     9     2     1 1
    10     2     3 1
    11     3     4 1
    12    24     9 2
    13    24    23 1
    14     9     8 1
    15     5     4 2
    16    22    23 ar
    17    22    21 ar
    18     4     6 1
    19    23    16 ar
    20    21    18 ar
    21     8     6 1
    22     8    10 1
    23     6     7 1
    24    16    15 1
    25    16    17 ar
    26    10    15 1
    27    10    11 2
    28    18    17 ar
    29    18    19 1
    30    15    13 1
    31    11    12 1
    32    20    19 1
    33    13    12 2
    34    13    14 1
    35     1    32 1
    36     1    33 1
    37     1    34 1
    38     2    35 1
    39     2    36 1
    40     3    37 1
    41     6    38 1
    42     7    39 1
    43     7    40 1
    44     7    41 1
    45     8    42 1
    46    14    43 1
    47    14    44 1
    48    14    45 1
    49    17    46 1
    50    20    47 1
    51    20    48 1
    52    20    49 1
    53    21    50 1
    54    22    51 1
    55    26    52 1
    56    27    53 1
    57    30    54 1
    58    31    55 1
@<TRIPOS>SUBSTRUCTURE
     1 9HQ         1 TEMP              0 ****  ****    0 ROOT
