@<TRIPOS>MOLECULE
9HS
   57    60     1     0     0
SMALL
bcc


@<TRIPOS>ATOM
      1 C7           0.0000     0.0000     0.0000 ca         1 9HS      -0.095000
      2 C9          -2.6900     0.0090     2.3860 cc         1 9HS       0.336800
      3 N1          -2.0470     0.0050     1.2570 nd         1 9HS      -0.540100
      4 C2          -0.7240     0.0290     3.6830 c          1 9HS       0.636100
      5 N2          -4.8420    -3.6370     5.7610 n          1 9HS      -0.160800
      6 C10         -4.1030    -1.4180     6.4570 c3         1 9HS      -0.064900
      7 C4           1.4280    -0.0010     2.4040 ca         1 9HS      -0.005000
      8 C6           1.3780     0.0000     0.0000 ca         1 9HS      -0.002600
      9 N           -2.0750     0.0150     3.5960 n          1 9HS       0.028700
     10 C           -3.1600    -1.4210     5.2530 c3         1 9HS       0.148800
     11 O           -1.9310    -2.0570     5.6110 oh         1 9HS      -0.574800
     12 C1          -2.8800     0.0200     4.8200 c3         1 9HS      -0.005000
     13 C11         -4.3540    -2.8600     6.9090 c3         1 9HS       0.053500
     14 C13         -6.4820    -5.1250     4.6580 c3         1 9HS      -0.101400
     15 C14         -7.7990    -5.8170     5.0150 c3         1 9HS       0.022600
     16 C15         -7.5510    -6.8490     6.1160 c3         1 9HS      -0.000100
     17 C16         -8.3500    -6.5070     3.7940 ca         1 9HS      -0.090300
     18 C17         -9.5920    -6.1530     3.3010 ca         1 9HS      -0.099500
     19 C18        -10.0970    -6.7870     2.1810 ca         1 9HS      -0.099000
     20 C19         -9.3610    -7.7740     1.5550 ca         1 9HS      -0.105000
     21 C20         -8.1190    -8.1290     2.0470 ca         1 9HS      -0.099000
     22 C21         -7.6110    -7.4910     3.1640 ca         1 9HS      -0.099500
     23 C22         -4.0560    -3.6340     4.5200 c3         1 9HS       0.053500
     24 C23         -3.8090    -2.1830     4.0950 c3         1 9HS      -0.064900
     25 C3           0.0360     0.0110     2.4240 ca         1 9HS      -0.212600
     26 C5           2.0890     0.0000     1.1950 ca         1 9HS      -0.127000
     27 C8          -0.6910     0.0050     1.2120 ca         1 9HS       0.158400
     28 O1          -0.1590     0.0360     4.7610 o          1 9HS      -0.660500
     29 O2          -6.6360    -4.3230     6.8730 o          1 9HS      -0.648100
     30 Cl           2.2370    -0.0000    -1.5090 cl         1 9HS      -0.018400
     31 H5          -0.5440     0.0000    -0.9370 ha         1 9HS       0.132000
     32 H6          -3.7730    -0.0020     2.3600 h5         1 9HS       0.007800
     33 H7          -5.0440    -0.9600     6.1760 hc         1 9HS       0.031950
     34 H8          -3.6510    -0.8590     7.2680 hc         1 9HS       0.031950
     35 H3           1.9880    -0.0010     3.3310 ha         1 9HS       0.127000
     36 H           -1.6590    -1.7580     6.4630 ho         1 9HS       0.409000
     37 H2          -2.3390     0.5340     5.6060 h1         1 9HS       0.048700
     38 H1          -3.8170     0.5290     4.6330 h1         1 9HS       0.048700
     39 H10         -5.0980    -2.8690     7.6960 h1         1 9HS       0.038700
     40 H9          -3.4290    -3.2920     7.2720 h1         1 9HS       0.038700
     41 H12         -5.7420    -5.8710     4.3930 hc         1 9HS       0.035200
     42 H11         -6.6390    -4.4590     3.8190 hc         1 9HS       0.035200
     43 H13         -8.5110    -5.0790     5.3640 hc         1 9HS       0.045700
     44 H16         -8.0750    -7.7660     5.8760 hc         1 9HS       0.011367
     45 H14         -6.4890    -7.0480     6.1920 hc         1 9HS       0.011367
     46 H15         -7.9150    -6.4620     7.0610 hc         1 9HS       0.011367
     47 H17        -10.1690    -5.3790     3.7920 ha         1 9HS       0.107000
     48 H18        -11.0710    -6.5100     1.7940 ha         1 9HS       0.102000
     49 H19         -9.7580    -8.2730     0.6780 ha         1 9HS       0.102000
     50 H20         -7.5410    -8.9010     1.5550 ha         1 9HS       0.102000
     51 H21         -6.6380    -7.7680     3.5500 ha         1 9HS       0.107000
     52 H23         -3.1070    -4.1280     4.6920 h1         1 9HS       0.038700
     53 H22         -4.6050    -4.1510     3.7430 h1         1 9HS       0.038700
     54 H24         -4.7530    -1.7160     3.8410 hc         1 9HS       0.031950
     55 H25         -3.1490    -2.1660     3.2370 hc         1 9HS       0.031950
     56 H4           3.1720     0.0000     1.1750 ha         1 9HS       0.119000
     57 C12         -5.9930    -4.3330     5.8440 c          1 9HS       0.590100
@<TRIPOS>BOND
     1     1     8 ar  
     2     1    27 ar  
     3     1    31 1   
     4     2     3 2   
     5     2     9 1   
     6     2    32 1   
     7     3    27 1   
     8     4     9 1   
     9     4    25 1   
    10     4    28 2   
    11     5    13 1   
    12     5    23 1   
    13     5    57 1   
    14     6    10 1   
    15     6    13 1   
    16     6    33 1   
    17     6    34 1   
    18     7    25 ar  
    19     7    26 ar  
    20     7    35 1   
    21     8    26 ar  
    22     8    30 1   
    23     9    12 1   
    24    10    11 1   
    25    10    12 1   
    26    10    24 1   
    27    11    36 1   
    28    12    37 1   
    29    12    38 1   
    30    13    39 1   
    31    13    40 1   
    32    14    15 1   
    33    14    41 1   
    34    14    42 1   
    35    14    57 1   
    36    15    16 1   
    37    15    17 1   
    38    15    43 1   
    39    16    44 1   
    40    16    45 1   
    41    16    46 1   
    42    17    18 ar  
    43    17    22 ar  
    44    18    19 ar  
    45    18    47 1   
    46    19    20 ar  
    47    19    48 1   
    48    20    21 ar  
    49    20    49 1   
    50    21    22 ar  
    51    21    50 1   
    52    22    51 1   
    53    23    24 1   
    54    23    52 1   
    55    23    53 1   
    56    24    54 1   
    57    24    55 1   
    58    25    27 ar  
    59    26    56 1   
    60    29    57 2   
@<TRIPOS>SUBSTRUCTURE
     1 9HS         1 TEMP              0 ****  ****    0 ROOT
