@<TRIPOS>MOLECULE
molecule
   58    61     1     0     0
SMALL
bcc


@<TRIPOS>ATOM
      1 CAA          0.0000     0.0000     0.0000 c3         1 9HT      -0.113100
      2 CAN          1.5300     0.0000     0.0000 c3         1 9HT       0.110000
      3 NAS          2.0180     0.0000     1.3810 ns         1 9HT      -0.586900
      4 CAU          3.3390    -0.0990     1.6290 c          1 9HT       0.664100
      5 OAE          4.1310    -0.0980     0.7100 o          1 9HT      -0.594100
      6 CBD          3.8340    -0.2110     3.0480 c3         1 9HT      -0.169700
      7 CAO          4.2640     1.1680     3.5490 c3         1 9HT      -0.073400
      8 CAB          3.0420     2.0850     3.6300 c3         1 9HT      -0.097100
      9 CBE          5.0280    -1.1670     3.0980 c3         1 9HT       0.134200
     10 NAP          4.6320    -2.4830     2.5840 n2         1 9HT      -0.556900
     11 CBC          5.4780    -1.3470     4.5260 cc         1 9HT       0.346800
     12 NAR          6.6430    -1.0600     5.0310 nd         1 9HT      -0.331000
     13 NAQ          6.6690    -1.3930     6.2750 nd         1 9HT      -0.346000
     14 CAY          5.5140    -1.8970     6.6240 cc         1 9HT       0.364800
     15 CAD          5.1410    -2.4230     7.9870 c3         1 9HT      -0.106400
     16 NBF          4.7170    -1.8580     5.5250 na         1 9HT      -0.239800
     17 CBB          3.3730    -2.2240     5.4300 ca         1 9HT      -0.019200
     18 CAL          2.5460    -1.9910     6.5240 ca         1 9HT      -0.106000
     19 CAI          1.2040    -2.3030     6.4680 ca         1 9HT      -0.194000
     20 CAX          0.6680    -2.8510     5.3110 ca         1 9HT       0.136100
     21 OAT         -0.6590    -3.1440     5.2510 os         1 9HT      -0.321900
     22 CAC         -1.4390    -2.8610     6.4140 c3         1 9HT       0.126700
     23 CAM          1.4790    -3.1010     4.2220 ca         1 9HT      -0.130000
     24 CBA          2.8490    -2.8030     4.2720 ca         1 9HT      -0.144900
     25 CAV          3.6740    -3.1610     3.1130 ce         1 9HT       0.519500
     26 CAZ          3.3660    -4.4600     2.4720 ca         1 9HT      -0.145900
     27 CAJ          3.6670    -4.6670     1.1260 ca         1 9HT      -0.085500
     28 CAG          3.3790    -5.8790     0.5350 ca         1 9HT      -0.132000
     29 CAW          2.7910    -6.8910     1.2760 ca         1 9HT       0.043400
     30 Cl           2.4300    -8.4140     0.5240 cl         1 9HT      -0.106400
     31 CAH          2.4910    -6.6920     2.6120 ca         1 9HT      -0.132000
     32 CAK          2.7800    -5.4860     3.2150 ca         1 9HT      -0.085500
     33 HAA         -0.3610     0.8830     0.5140 hc         1 9HT       0.042033
     34 HAB         -0.3610     0.0030    -1.0210 hc         1 9HT       0.042033
     35 HAC         -0.3610    -0.8860     0.5080 hc         1 9HT       0.042033
     36 HAT          1.8910    -0.8840    -0.5110 h1         1 9HT       0.054200
     37 HAU          1.8910     0.8840    -0.5110 h1         1 9HT       0.054200
     38 HBF          1.3720     0.0820     2.1400 hn         1 9HT       0.312500
     39 HBD          3.0400    -0.5930     3.6780 hc         1 9HT       0.062700
     40 HAW          4.9890     1.5920     2.8640 hc         1 9HT       0.063700
     41 HAV          4.7100     1.0730     4.5320 hc         1 9HT       0.063700
     42 HAD          2.1900     1.5210     3.9890 hc         1 9HT       0.036367
     43 HAF          3.2480     2.9010     4.3120 hc         1 9HT       0.036367
     44 HAE          2.8240     2.4830     2.6460 hc         1 9HT       0.036367
     45 HBE          5.8440    -0.7740     2.5040 h1         1 9HT       0.138700
     46 HAJ          4.5480    -3.3230     7.8760 hc         1 9HT       0.059367
     47 HAK          6.0410    -2.6500     8.5450 hc         1 9HT       0.059367
     48 HAL          4.5660    -1.6740     8.5180 hc         1 9HT       0.059367
     49 HAR          2.9610    -1.5630     7.4290 ha         1 9HT       0.152000
     50 HAO          0.5760    -2.1530     7.3380 ha         1 9HT       0.148000
     51 HAG         -1.3750    -1.8040     6.6440 h1         1 9HT       0.046033
     52 HAH         -1.0620    -3.4360     7.2510 h1         1 9HT       0.046033
     53 HAI         -2.4730    -3.1280     6.2300 h1         1 9HT       0.046033
     54 HAS          1.0540    -3.5290     3.3220 ha         1 9HT       0.168000
     55 HAP          4.1270    -3.8760     0.5460 ha         1 9HT       0.155000
     56 HAM          3.6130    -6.0400    -0.5100 ha         1 9HT       0.148000
     57 HAN          2.0340    -7.4880     3.1880 ha         1 9HT       0.148000
     58 HAQ          2.5440    -5.3320     4.2610 ha         1 9HT       0.155000
@<TRIPOS>BOND
     1    30    29 1
     2    29    28 ar
     3    29    31 ar
     4    28    27 ar
     5    31    32 ar
     6    27    26 ar
     7    32    26 ar
     8    26    25 1
     9     2     1 1
    10     2     3 1
    11     3     4 1
    12    25    10 2
    13    25    24 1
    14    10     9 1
    15     4     5 2
    16     4     6 1
    17    23    24 ar
    18    23    20 ar
    19    24    17 ar
    20     6     9 1
    21     6     7 1
    22    21    20 1
    23    21    22 1
    24     9    11 1
    25    20    19 ar
    26    11    16 1
    27    11    12 2
    28    17    16 1
    29    17    18 ar
    30     7     8 1
    31    16    14 1
    32    12    13 1
    33    19    18 ar
    34    13    14 2
    35    14    15 1
    36     1    33 1
    37     1    34 1
    38     1    35 1
    39     2    36 1
    40     2    37 1
    41     3    38 1
    42     6    39 1
    43     7    40 1
    44     7    41 1
    45     8    42 1
    46     8    43 1
    47     8    44 1
    48     9    45 1
    49    15    46 1
    50    15    47 1
    51    15    48 1
    52    18    49 1
    53    19    50 1
    54    22    51 1
    55    22    52 1
    56    22    53 1
    57    23    54 1
    58    27    55 1
    59    28    56 1
    60    31    57 1
    61    32    58 1
@<TRIPOS>SUBSTRUCTURE
     1 9HT         1 TEMP              0 ****  ****    0 ROOT
