@<TRIPOS>MOLECULE
molecule
   54    55     1     0     0
SMALL
bcc


@<TRIPOS>ATOM
      1 C10          0.0000     0.0000     0.0000 c3         1 9HV       0.140500
      2 C11         -0.5200    -0.8920    -1.1290 c3         1 9HV       0.110400
      3 C14         -1.3110    -1.7020     1.1280 c3         1 9HV       0.181800
      4 C15         -2.0690    -1.9700     2.4290 c3         1 9HV      -0.234600
      5 O18         -4.3540    -3.2530     3.4330 o          1 9HV      -0.921833
      6 C20          0.7620    -0.8840     2.0940 c3         1 9HV       0.180500
      7 C21          0.5390    -0.5600     3.5730 c3         1 9HV       0.148400
      8 O24          5.6440    -1.2800     0.6080 oh         1 9HV      -0.576800
      9 C02          4.0980     1.4300     5.3010 c3         1 9HV       0.151400
     10 C03          4.2200     0.4500     4.1310 c3         1 9HV       0.142100
     11 C05          4.2540     0.3460     1.7360 c3         1 9HV       0.324900
     12 C07          1.8930     0.0000     1.5110 c3         1 9HV       0.123100
     13 C08          1.5440     0.0000     0.0000 c3         1 9HV       0.088100
     14 C23          5.5850    -0.4100     1.7410 c3         1 9HV       0.120100
     15 C25          5.6910    -1.2360     3.0260 c3         1 9HV       0.113100
     16 C27          5.5500    -0.3020     4.2320 c3         1 9HV       0.108100
     17 N13         -0.4360    -0.5340     1.3040 n3         1 9HV      -0.687600
     18 O01          2.8090     2.0480     5.2730 oh         1 9HV      -0.583800
     19 O04          4.1740     1.1720     2.8990 os         1 9HV      -0.425600
     20 O06          3.1750    -0.5900     1.7410 os         1 9HV      -0.421600
     21 O09          2.0480     1.1760    -0.6350 oh         1 9HV      -0.626800
     22 O12          0.0640    -2.1920    -1.0160 oh         1 9HV      -0.594800
     23 O17         -4.5860    -1.9030     1.1880 o          1 9HV      -0.921833
     24 O19         -3.3150    -4.0820     1.2860 o          1 9HV      -0.921833
     25 O22         -0.4660    -1.4270     4.1030 oh         1 9HV      -0.529800
     26 O26          6.9610    -1.8890     3.0720 oh         1 9HV      -0.625800
     27 O28          5.5740    -1.0700     5.4370 oh         1 9HV      -0.596800
     28 P16         -3.6200    -2.8540     2.0570 p5         1 9HV       1.053700
     29 H1          -0.3670     1.0120    -0.1240 h1         1 9HV       0.069700
     30 H2          -0.2520    -0.4580    -2.0840 h1         1 9HV       0.034200
     31 H3          -1.5980    -0.9730    -1.0580 h1         1 9HV       0.034200
     32 H4          -2.0180    -1.5060     0.3310 h1         1 9HV       0.052200
     33 H5          -0.7110    -2.5670     0.8750 h1         1 9HV       0.052200
     34 H6          -2.2980    -1.0290     2.9150 hc         1 9HV       0.044200
     35 H7          -1.4570    -2.5760     3.0860 hc         1 9HV       0.044200
     36 H9           1.0030    -1.9320     1.9650 h1         1 9HV       0.068700
     37 H10          0.2170     0.4690     3.6730 h1         1 9HV       0.004700
     38 H11          1.4630    -0.7050     4.1190 h1         1 9HV       0.004700
     39 H12          6.4120    -1.0820     0.0980 ho         1 9HV       0.393000
     40 H13          4.8650     2.1900     5.2160 h1         1 9HV       0.022700
     41 H14          4.2210     0.8940     6.2340 h1         1 9HV       0.022700
     42 H15          3.4020    -0.2600     4.1620 h1         1 9HV       0.100700
     43 H16          4.1960     0.9670     0.8500 h2         1 9HV       0.093700
     44 H17          1.8440     1.0030     1.9170 h1         1 9HV       0.074700
     45 H18          1.9240    -0.8940    -0.4780 h1         1 9HV       0.066700
     46 H19          6.4020     0.3000     1.7000 h1         1 9HV       0.041700
     47 H20          4.8980    -1.9730     3.0470 h1         1 9HV       0.093700
     48 H21          6.3670     0.4100     4.2340 h1         1 9HV       0.034700
     49 H23          2.7640     2.7110     5.9420 ho         1 9HV       0.393000
     50 H24          2.2040     0.9980    -1.5480 ho         1 9HV       0.386000
     51 H25          0.0090    -2.6340    -1.8470 ho         1 9HV       0.384000
     52 H27         -0.3880    -1.4620     5.0420 ho         1 9HV       0.356000
     53 H28          6.8330    -2.8230     3.0960 ho         1 9HV       0.412000
     54 H29          6.4220    -0.9950     5.8410 ho         1 9HV       0.399000
@<TRIPOS>BOND
     1    27    16 1
     2     9    18 1
     3     9    10 1
     4    16    10 1
     5    16    15 1
     6    26    15 1
     7    10    19 1
     8    15    14 1
     9    19    11 1
    10    14    11 1
    11    14     8 1
    12    11    20 1
    13    20    12 1
    14    21    13 1
    15    12    13 1
    16    12     6 1
    17    13     1 1
    18    25     7 1
    19     7     6 1
    20     6    17 1
    21     1    17 1
    22     1     2 1
    23    24    28 1
    24    17     3 1
    25    22     2 1
    26     4     3 1
    27     4    28 1
    28    28    23 1
    29    28     5 1
    30     1    29 1
    31     2    30 1
    32     2    31 1
    33     3    32 1
    34     3    33 1
    35     4    34 1
    36     4    35 1
    37     6    36 1
    38     7    37 1
    39     7    38 1
    40     8    39 1
    41     9    40 1
    42     9    41 1
    43    10    42 1
    44    11    43 1
    45    12    44 1
    46    13    45 1
    47    14    46 1
    48    15    47 1
    49    16    48 1
    50    18    49 1
    51    21    50 1
    52    22    51 1
    53    25    52 1
    54    26    53 1
    55    27    54 1
@<TRIPOS>SUBSTRUCTURE
     1 9HV         1 TEMP              0 ****  ****    0 ROOT
