@<TRIPOS>MOLECULE
9HW
   55    58     1     0     0
SMALL
bcc


@<TRIPOS>ATOM
      1 CBC          0.0000     0.0000     0.0000 c3         1 9HW      -0.008100
      2 CBB          1.5300     0.0000     0.0000 c3         1 9HW       0.051000
      3 NAZ          2.0170     0.0000     1.3820 ns         1 9HW      -0.201900
      4 CAX          3.3420     0.0000     1.6290 c          1 9HW       0.573100
      5 OBA          4.1310    -0.0000     0.7080 o          1 9HW      -0.627100
      6 CAW          3.8450    -0.0000     3.0500 c3         1 9HW      -0.169700
      7 CAY          3.3340     1.2480     3.7710 c3         1 9HW      -0.001100
      8 CAJ          5.3740    -0.0000     3.0510 c3         1 9HW       0.155200
      9 NAI          5.8720    -1.1950     2.3600 n2         1 9HW      -0.450900
     10 CAK          5.8850    -0.0420     4.4700 cc         1 9HW       0.130800
     11 NAS          6.6300     0.8400     5.0690 nd         1 9HW      -0.299000
     12 NAT          6.8980     0.4390     6.2640 nd         1 9HW      -0.324000
     13 CAU          6.3250    -0.7160     6.4850 cc         1 9HW       0.158800
     14 CAV          6.4040    -1.5300     7.7510 c3         1 9HW       0.009600
     15 NAL          5.6410    -1.0400     5.3560 na         1 9HW       0.293200
     16 CAM          4.8180    -2.1470     5.1410 ca         1 9HW      -0.209200
     17 CAO          4.0630    -2.6240     6.2090 ca         1 9HW      -0.069000
     18 CAP          3.2090    -3.6920     6.0410 ca         1 9HW      -0.188000
     19 CAQ          3.0960    -4.3020     4.7970 ca         1 9HW       0.161100
     20 OBD          2.2420    -5.3460     4.6280 os         1 9HW      -0.299900
     21 CBE          1.4940    -5.7640     5.7710 c3         1 9HW       0.243700
     22 CAR          3.8490    -3.8470     3.7330 ca         1 9HW      -0.122000
     23 CAN          4.7340    -2.7710     3.8960 ca         1 9HW      -0.097900
     24 CAH          5.5640    -2.3830     2.7500 ce         1 9HW       0.459500
     25 CAE          6.1150    -3.4940     1.9410 ca         1 9HW      -0.151900
     26 CAD          6.4450    -3.2900     0.6010 ca         1 9HW      -0.064500
     27 CAC          6.9590    -4.3280    -0.1470 ca         1 9HW      -0.108500
     28 CAB          7.1480    -5.5740     0.4300 ca         1 9HW      -0.022600
     29 ClA          7.7960    -6.8760    -0.5180 cl         1 9HW      -0.028400
     30 CAG          6.8230    -5.7820     1.7590 ca         1 9HW      -0.108500
     31 CAF          6.3130    -4.7500     2.5180 ca         1 9HW      -0.064500
     32 HBD         -0.3610    -0.0080    -1.0210 hc         1 9HW       0.008033
     33 HBE         -0.3610     0.8880     0.5040 hc         1 9HW       0.008033
     34 HBF         -0.3610    -0.8810     0.5170 hc         1 9HW       0.008033
     35 HBB          1.8920     0.8850    -0.5100 h1         1 9HW       0.026200
     36 HBC          1.8910    -0.8850    -0.5100 h1         1 9HW       0.026200
     37 HBJ          1.3670    -0.0190     2.1420 hn         1 9HW       0.175500
     38 HAY          3.4830    -0.8850     3.5600 hc         1 9HW       0.050700
     39 HA0          4.1670     1.7700     4.2250 hc         1 9HW       0.017367
     40 HA1          2.6280     0.9580     4.5400 hc         1 9HW       0.017367
     41 HAZ          2.8440     1.9020     3.0590 hc         1 9HW       0.017367
     42 HAJ          5.7460     0.8880     2.5560 h1         1 9HW       0.085700
     43 HAW          7.2640    -1.2140     8.3300 hc         1 9HW       0.017033
     44 HAX          6.5040    -2.5790     7.5000 hc         1 9HW       0.017033
     45 HAV          5.5030    -1.3820     8.3330 hc         1 9HW       0.017033
     46 HAO          4.1480    -2.1510     7.1800 ha         1 9HW       0.129000
     47 HAP          2.6340    -4.0640     6.8810 ha         1 9HW       0.129000
     48 HBI          0.8900    -4.9390     6.1300 h1         1 9HW       0.001367
     49 HBG          2.1740    -6.0810     6.5520 h1         1 9HW       0.001367
     50 HBH          0.8490    -6.5910     5.4970 h1         1 9HW       0.001367
     51 HAR          3.7570    -4.3260     2.7660 ha         1 9HW       0.143000
     52 HAD          6.2980    -2.3160     0.1490 ha         1 9HW       0.126000
     53 HAC          7.2150    -4.1700    -1.1870 ha         1 9HW       0.116500
     54 HAG          6.9740    -6.7580     2.2060 ha         1 9HW       0.116500
     55 HAF          6.0590    -4.9150     3.5580 ha         1 9HW       0.126000
@<TRIPOS>BOND
     1     1     2 1   
     2     1    32 1   
     3     1    33 1   
     4     1    34 1   
     5     2     3 1   
     6     2    35 1   
     7     2    36 1   
     8     3     4 1   
     9     3    37 1   
    10     4     5 2   
    11     4     6 1   
    12     6     7 1   
    13     6     8 1   
    14     6    38 1   
    15     7    39 1   
    16     7    40 1   
    17     7    41 1   
    18     8     9 1   
    19     8    10 1   
    20     8    42 1   
    21     9    24 2   
    22    10    11 2   
    23    10    15 1   
    24    11    12 1   
    25    12    13 2   
    26    13    14 1   
    27    13    15 1   
    28    14    43 1   
    29    14    44 1   
    30    14    45 1   
    31    15    16 1   
    32    16    17 ar  
    33    16    23 ar  
    34    17    18 ar  
    35    17    46 1   
    36    18    19 ar  
    37    18    47 1   
    38    19    20 1   
    39    19    22 ar  
    40    20    21 1   
    41    21    48 1   
    42    21    49 1   
    43    21    50 1   
    44    22    23 ar  
    45    22    51 1   
    46    23    24 1   
    47    24    25 1   
    48    25    26 ar  
    49    25    31 ar  
    50    26    27 ar  
    51    26    52 1   
    52    27    28 ar  
    53    27    53 1   
    54    28    29 1   
    55    28    30 ar  
    56    30    31 ar  
    57    30    54 1   
    58    31    55 1   
@<TRIPOS>SUBSTRUCTURE
     1 9HW         1 TEMP              0 ****  ****    0 ROOT
