@<TRIPOS>MOLECULE
molecule
   55    58     1     0     0
SMALL
bcc


@<TRIPOS>ATOM
      1 CBC          0.0000     0.0000     0.0000 c3         1 9HW      -0.113100
      2 CBB          1.5300     0.0000     0.0000 c3         1 9HW       0.110000
      3 NAZ          2.0170     0.0000     1.3820 ns         1 9HW      -0.587900
      4 CAX          3.3420     0.0000     1.6290 c          1 9HW       0.659100
      5 OBA          4.1310    -0.0000     0.7080 o          1 9HW      -0.590100
      6 CAW          3.8450    -0.0000     3.0500 c3         1 9HW      -0.176700
      7 CAY          3.3340     1.2480     3.7710 c3         1 9HW      -0.093100
      8 CAJ          5.3740    -0.0000     3.0510 c3         1 9HW       0.138200
      9 NAI          5.8720    -1.1950     2.3600 n2         1 9HW      -0.537900
     10 CAK          5.8850    -0.0420     4.4700 cc         1 9HW       0.345800
     11 NAS          6.6300     0.8400     5.0690 nc         1 9HW      -0.334000
     12 NAT          6.8980     0.4390     6.2640 nc         1 9HW      -0.347000
     13 CAU          6.3250    -0.7160     6.4850 cd         1 9HW       0.366800
     14 CAV          6.4040    -1.5300     7.7510 c3         1 9HW      -0.106400
     15 NAL          5.6410    -1.0400     5.3560 na         1 9HW      -0.239800
     16 CAM          4.8180    -2.1470     5.1410 ca         1 9HW      -0.023200
     17 CAO          4.0630    -2.6240     6.2090 ca         1 9HW      -0.107000
     18 CAP          3.2090    -3.6920     6.0410 ca         1 9HW      -0.196000
     19 CAQ          3.0960    -4.3020     4.7970 ca         1 9HW       0.137100
     20 OBD          2.2420    -5.3460     4.6280 os         1 9HW      -0.320900
     21 CBE          1.4940    -5.7640     5.7710 c3         1 9HW       0.126700
     22 CAR          3.8490    -3.8470     3.7330 ca         1 9HW      -0.128000
     23 CAN          4.7340    -2.7710     3.8960 ca         1 9HW      -0.141900
     24 CAH          5.5640    -2.3830     2.7500 ce         1 9HW       0.512500
     25 CAE          6.1150    -3.4940     1.9410 ca         1 9HW      -0.143900
     26 CAD          6.4450    -3.2900     0.6010 ca         1 9HW      -0.085000
     27 CAC          6.9590    -4.3280    -0.1470 ca         1 9HW      -0.133000
     28 CAB          7.1480    -5.5740     0.4300 ca         1 9HW       0.042400
     29 ClA          7.7960    -6.8760    -0.5180 cl         1 9HW      -0.108400
     30 CAG          6.8230    -5.7820     1.7590 ca         1 9HW      -0.133000
     31 CAF          6.3130    -4.7500     2.5180 ca         1 9HW      -0.085000
     32 HBD         -0.3610    -0.0080    -1.0210 hc         1 9HW       0.042700
     33 HBE         -0.3610     0.8880     0.5040 hc         1 9HW       0.042700
     34 HBF         -0.3610    -0.8810     0.5170 hc         1 9HW       0.042700
     35 HBB          1.8920     0.8850    -0.5100 h1         1 9HW       0.054200
     36 HBC          1.8910    -0.8850    -0.5100 h1         1 9HW       0.054200
     37 HBJ          1.3670    -0.0190     2.1420 hn         1 9HW       0.312500
     38 HAY          3.4830    -0.8850     3.5600 hc         1 9HW       0.073700
     39 HA0          4.1670     1.7700     4.2250 hc         1 9HW       0.050033
     40 HA1          2.6280     0.9580     4.5400 hc         1 9HW       0.050033
     41 HAZ          2.8440     1.9020     3.0590 hc         1 9HW       0.050033
     42 HAJ          5.7460     0.8880     2.5560 h1         1 9HW       0.131700
     43 HAW          7.2640    -1.2140     8.3300 hc         1 9HW       0.059367
     44 HAX          6.5040    -2.5790     7.5000 hc         1 9HW       0.059367
     45 HAV          5.5030    -1.3820     8.3330 hc         1 9HW       0.059367
     46 HAO          4.1480    -2.1510     7.1800 ha         1 9HW       0.151000
     47 HAP          2.6340    -4.0640     6.8810 ha         1 9HW       0.147000
     48 HBI          0.8900    -4.9390     6.1300 h1         1 9HW       0.045367
     49 HBG          2.1740    -6.0810     6.5520 h1         1 9HW       0.045367
     50 HBH          0.8490    -6.5910     5.4970 h1         1 9HW       0.045367
     51 HAR          3.7570    -4.3260     2.7660 ha         1 9HW       0.169000
     52 HAD          6.2980    -2.3160     0.1490 ha         1 9HW       0.156500
     53 HAC          7.2150    -4.1700    -1.1870 ha         1 9HW       0.147000
     54 HAG          6.9740    -6.7580     2.2060 ha         1 9HW       0.147000
     55 HAF          6.0590    -4.9150     3.5580 ha         1 9HW       0.156500
@<TRIPOS>BOND
     1    14    13 1
     2    12    13 2
     3    12    11 1
     4    13    15 1
     5    17    18 ar
     6    17    16 ar
     7     7     6 1
     8    11    10 2
     9    18    19 ar
    10    15    10 1
    11    15    16 1
    12    10     8 1
    13    16    23 ar
    14    21    20 1
    15     6     8 1
    16     6     4 1
    17    19    20 1
    18    19    22 ar
    19     8     9 1
    20    23    22 ar
    21    23    24 1
    22     4     5 2
    23     4     3 1
    24     9    24 2
    25    24    25 1
    26     3     2 1
    27     1     2 1
    28    25    31 ar
    29    25    26 ar
    30    31    30 ar
    31    26    27 ar
    32    30    28 ar
    33    27    28 ar
    34    28    29 1
    35     1    32 1
    36     1    33 1
    37     1    34 1
    38     2    35 1
    39     2    36 1
    40     3    37 1
    41     6    38 1
    42     7    39 1
    43     7    40 1
    44     7    41 1
    45     8    42 1
    46    14    43 1
    47    14    44 1
    48    14    45 1
    49    17    46 1
    50    18    47 1
    51    21    48 1
    52    21    49 1
    53    21    50 1
    54    22    51 1
    55    26    52 1
    56    27    53 1
    57    30    54 1
    58    31    55 1
@<TRIPOS>SUBSTRUCTURE
     1 9HW         1 TEMP              0 ****  ****    0 ROOT
