@<TRIPOS>MOLECULE
9HX
   15    16     1     0     0
SMALL
bcc


@<TRIPOS>ATOM
      1 C9         -0.0480    0.0010   -0.0490 cc        1 9HX     -0.176000
      2 C8          1.3590    0.0010   -0.0280 cd        1 9HX     -0.117300
      3 N7          1.8180    0.0010    1.2820 na        1 9HX     -0.134100
      4 C5          0.7160    0.0000    2.1230 cd        1 9HX     -0.232900
      5 C6          0.6510    0.0000    3.5770 c         1 9HX      0.726100
      6 O6          1.6210    0.0000    4.3580 o         1 9HX     -0.643500
      7 N1         -0.6670   -0.0000    4.0720 n         1 9HX     -0.486400
      8 C2         -1.7660    0.0000    3.2110 cd        1 9HX      0.459800
      9 N3         -1.7400    0.0000    1.8940 nc        1 9HX     -0.568100
     10 C4         -0.4780    0.0000    1.3210 cc        1 9HX      0.121400
     11 H9         -0.6860    0.0010   -0.9270 ha        1 9HX      0.171000
     12 H8          2.0560    0.0010   -0.8680 h4        1 9HX      0.173000
     13 HN7         2.7580    0.0010    1.5840 hn        1 9HX      0.315700
     14 HN1        -0.8050   -0.0000    5.0570 hn        1 9HX      0.337500
     15 H2         -2.7610   -0.0000    3.7060 h5        1 9HX      0.052800
@<TRIPOS>BOND
     1    1    2 2
     2    1   10 1
     3    1   11 1
     4    2    3 1
     5    2   12 1
     6    3    4 1
     7    3   13 1
     8    4    5 1
     9    4   10 2
    10    5    6 2
    11    5    7 1
    12    7    8 1
    13    7   14 1
    14    8    9 2
    15    8   15 1
    16    9   10 1
@<TRIPOS>SUBSTRUCTURE
     1 9HX         1 TEMP              0 ****  ****    0 ROOT
