@<TRIPOS>MOLECULE
molecule
   60    63     1     0     0
SMALL
bcc


@<TRIPOS>ATOM
      1 C26          0.0000     0.0000     0.0000 c3         1 9HY      -0.184100
      2 C25          1.5070     0.0000     0.0000 c          1 9HY       0.666100
      3 C27          3.6410     0.1160     1.1720 c3         1 9HY       0.076300
      4 N4           0.2670    -6.1940     5.0610 n1         1 9HY      -0.348800
      5 C22          1.6560    -2.5510     2.2830 ca         1 9HY      -0.098000
      6 C21          1.4010    -3.7660     2.8340 ca         1 9HY      -0.091000
      7 N3           2.1810     0.0000     1.1680 n          1 9HY      -0.455000
      8 C20          0.7070    -3.8730     4.0530 ca         1 9HY       0.004000
      9 C1          -0.6110     4.8510     2.5780 ca         1 9HY      -0.143000
     10 C2          -0.7930     3.6410     3.2300 ca         1 9HY       0.057100
     11 C7          -2.7310     3.3200     1.8900 c3         1 9HY      -0.316600
     12 C6           0.4620     5.6580     2.9060 ca         1 9HY      -0.108000
     13 C5           1.3560     5.2630     3.8840 ca         1 9HY      -0.104000
     14 C4           1.1810     4.0570     4.5390 ca         1 9HY      -0.107000
     15 C3           0.1060     3.2430     4.2150 ca         1 9HY       0.106100
     16 C8          -3.8490     2.2980     1.6680 c3         1 9HY       0.081000
     17 C9          -5.7380     3.0080     3.0230 c          1 9HY       0.803500
     18 C10         -6.2210     2.0610     5.1040 c          1 9HY       0.695700
     19 C11         -5.1000     1.2080     4.9630 cc         1 9HY      -0.325200
     20 C12         -4.3430     1.2960     3.8490 cd         1 9HY       0.043600
     21 C13          0.3540     0.9260     4.2330 ca         1 9HY       0.128100
     22 O1          -0.0670     2.0570     4.8570 os         1 9HY      -0.240200
     23 N1          -4.6700     2.2030     2.8770 n          1 9HY      -0.409000
     24 C14          0.0900    -0.3010     4.8000 ca         1 9HY      -0.119300
     25 N2          -6.5100     2.9420     4.1240 ns         1 9HY      -0.562500
     26 C15          0.5240    -1.4730     4.1580 ca         1 9HY      -0.033000
     27 C19          0.2700    -2.7380     4.7130 ca         1 9HY      -0.090000
     28 O5           2.1140    -0.0010    -1.0490 o          1 9HY      -0.596100
     29 C16          1.2300    -1.3800     2.9320 ca         1 9HY      -0.068000
     30 C17          1.4860    -0.1090     2.3750 ca         1 9HY       0.064600
     31 C18          1.0500     1.0220     3.0260 ca         1 9HY      -0.193000
     32 O3          -6.0070     3.8100     2.1500 o          1 9HY      -0.653500
     33 H1          -0.1040     1.0730     0.1100 hc         1 9HY       0.067033
     34 H2          -0.6200    -0.5330     0.7110 hc         1 9HY       0.067033
     35 H3          -0.3420    -0.0590    -1.0260 hc         1 9HY       0.067033
     36 H4           3.8170    -0.5750     1.9870 h1         1 9HY       0.078033
     37 H5           3.6740     1.1990     1.1820 h1         1 9HY       0.078033
     38 H6           3.6770    -0.1100     0.1130 h1         1 9HY       0.078033
     39 H7          -1.5940    -0.7660     5.7060 hc         1 9HY       0.068367
     40 H8          -0.0820    -1.0080     6.7770 hc         1 9HY       0.068367
     41 H9          -0.7340     0.6810     6.2710 hc         1 9HY       0.068367
     42 H10          2.2090    -2.2800     1.3920 ha         1 9HY       0.158000
     43 H11          1.5660    -4.7590     2.4320 ha         1 9HY       0.151000
     44 H12         -1.3280     4.8490     1.7660 ha         1 9HY       0.202000
     45 H13         -1.9980     2.6560     2.3330 h1         1 9HY       0.178200
     46 H14         -3.1010     4.2500     2.3030 h1         1 9HY       0.178200
     47 H15          0.6330     6.4430     2.1800 ha         1 9HY       0.152000
     48 H16          2.2290     5.9040     3.8770 ha         1 9HY       0.153000
     49 H17          1.7840     3.7950     5.4000 ha         1 9HY       0.163000
     50 H18         -3.7040     1.3130     1.2410 h1         1 9HY       0.086700
     51 H19         -4.7220     2.4770     1.0530 h1         1 9HY       0.086700
     52 H20         -5.0480     0.4830     5.7660 ha         1 9HY       0.181000
     53 H21         -3.6630     0.5840     3.3970 h4         1 9HY       0.155000
     54 H22         -7.2690     3.5750     4.2810 hn         1 9HY       0.361500
     55 H23         -0.1980    -2.5660     5.6750 ha         1 9HY       0.158000
     56 H24          1.1370     1.9000     2.3970 ha         1 9HY       0.154000
     57 C24         -0.6600    -0.3870     6.1040 c3         1 9HY      -0.050800
     58 C23          0.4500    -5.1660     4.6130 cg         1 9HY       0.232800
     59 O2          -1.8480     2.8460     2.9090 os         1 9HY      -0.197900
     60 O4          -6.9180     2.0000     6.1000 o          1 9HY      -0.623500
@<TRIPOS>BOND
     1    32    17 2
     2    16    11 1
     3    16    23 1
     4    17    23 1
     5    17    25 1
     6    11    59 1
     7    23    20 1
     8    25    18 1
     9    20    19 2
    10    59    10 1
    11    18    19 1
    12    18    60 2
    13     9    10 ar
    14     9    12 ar
    15    10    15 ar
    16    12    13 ar
    17    15    22 1
    18    15    14 ar
    19    22    21 1
    20    13    14 ar
    21    21    31 ar
    22    21    24 ar
    23    31    30 ar
    24    57    24 1
    25     3     7 1
    26    24    26 ar
    27    30     7 1
    28    30    29 ar
    29     7     2 1
    30     2    28 2
    31     2     1 1
    32    26    29 ar
    33    26    27 ar
    34    29     5 ar
    35    27     8 ar
    36     5     6 ar
    37     8     6 ar
    38     8    58 1
    39    58     4 3
    40     1    33 1
    41     1    34 1
    42     1    35 1
    43     3    36 1
    44     3    37 1
    45     3    38 1
    46    57    39 1
    47    57    40 1
    48    57    41 1
    49     5    42 1
    50     6    43 1
    51     9    44 1
    52    11    45 1
    53    11    46 1
    54    12    47 1
    55    13    48 1
    56    14    49 1
    57    16    50 1
    58    16    51 1
    59    19    52 1
    60    20    53 1
    61    25    54 1
    62    27    55 1
    63    31    56 1
@<TRIPOS>SUBSTRUCTURE
     1 9HY         1 TEMP              0 ****  ****    0 ROOT
