@<TRIPOS>MOLECULE
molecule
   55    58     1     0     0
SMALL
bcc


@<TRIPOS>ATOM
      1 CBE          0.0000     0.0000     0.0000 c3         1 9HZ       0.137700
      2 OBC          1.4520     0.0000     0.0000 os         1 9HZ      -0.428900
      3 CAZ          2.0610     0.0000     1.1960 c          1 9HZ       0.639100
      4 OBD          1.4030    -0.0170     2.2090 o          1 9HZ      -0.536000
      5 CAY          3.5660     0.0220     1.2760 c3         1 9HZ      -0.135700
      6 CBA          4.0570    -1.2330     1.9990 c3         1 9HZ      -0.038200
      7 CBB          3.7190    -2.4510     1.1780 c2         1 9HZ      -0.179200
      8 CBF          4.6630    -3.2930     0.8350 c2         1 9HZ      -0.214000
      9 CAJ          4.0180     1.2650     2.0470 c3         1 9HZ       0.130200
     10 NAI          3.4670     2.4690     1.4150 n2         1 9HZ      -0.577900
     11 CAK          5.5210     1.3720     2.0070 cc         1 9HZ       0.343800
     12 NAU          6.3420     1.3780     3.0170 nc         1 9HZ      -0.330000
     13 NAV          7.5480     1.5360     2.5940 nc         1 9HZ      -0.347000
     14 CAW          7.5540     1.6270     1.2890 cd         1 9HZ       0.368800
     15 CAX          8.7600     1.8320     0.4090 c3         1 9HZ      -0.106400
     16 NAL          6.2640     1.5040     0.8800 na         1 9HZ      -0.238800
     17 CAM          5.7810     1.4770    -0.4310 ca         1 9HZ      -0.023200
     18 CAO          6.5640     0.8720    -1.4090 ca         1 9HZ      -0.105000
     19 CAP          6.1170     0.7900    -2.7120 ca         1 9HZ      -0.191000
     20 CAQ          4.8760     1.3110    -3.0530 ca         1 9HZ       0.140100
     21 OAS          4.4290     1.2160    -4.3340 os         1 9HZ      -0.320900
     22 CAT          5.2880     0.5680    -5.2740 c3         1 9HZ       0.126700
     23 CAR          4.0950     1.9260    -2.0950 ca         1 9HZ      -0.118000
     24 CAN          4.5450     2.0320    -0.7710 ca         1 9HZ      -0.146900
     25 CAH          3.7070     2.7640     0.1850 ce         1 9HZ       0.535500
     26 CAE          3.0620     3.9940    -0.3270 ca         1 9HZ      -0.146900
     27 CAD          1.8780     4.4560     0.2510 ca         1 9HZ      -0.084000
     28 CAC          1.2800     5.6020    -0.2290 ca         1 9HZ      -0.131500
     29 CAB          1.8520     6.2960    -1.2830 ca         1 9HZ       0.043400
     30 ClA          1.0950     7.7370    -1.8820 cl         1 9HZ      -0.103400
     31 CAG          3.0270     5.8410    -1.8590 ca         1 9HZ      -0.131500
     32 CAF          3.6360     4.6990    -1.3840 ca         1 9HZ      -0.084000
     33 HBF         -0.3610     0.8100     0.6220 h1         1 9HZ       0.050367
     34 HBE         -0.3610     0.1340    -1.0130 h1         1 9HZ       0.050367
     35 HBG         -0.3610    -0.9440     0.3900 h1         1 9HZ       0.050367
     36 HA0          3.9800     0.0480     0.2750 hc         1 9HZ       0.082700
     37 HBB          3.5740    -1.3050     2.9660 hc         1 9HZ       0.072200
     38 HBA          5.1300    -1.1760     2.1350 hc         1 9HZ       0.072200
     39 HBC          2.6960    -2.6300     0.8710 ha         1 9HZ       0.129000
     40 HBH          4.4200    -4.1680     0.2450 ha         1 9HZ       0.114000
     41 H2           5.6860    -3.1140     1.1420 ha         1 9HZ       0.114000
     42 HAJ          3.6830     1.2060     3.0750 h1         1 9HZ       0.133700
     43 HAZ          9.0530     0.8850    -0.0280 hc         1 9HZ       0.060033
     44 HAX          9.5770     2.2240     1.0020 hc         1 9HZ       0.060033
     45 HAY          8.5160     2.5340    -0.3800 hc         1 9HZ       0.060033
     46 HAO          7.5320     0.4650    -1.1470 ha         1 9HZ       0.151000
     47 HAP          6.7480     0.3510    -3.4750 ha         1 9HZ       0.148000
     48 HAT          6.2220     1.1130    -5.3460 h1         1 9HZ       0.046033
     49 HAU          5.4850    -0.4450    -4.9450 h1         1 9HZ       0.046033
     50 HAV          4.8080     0.5450    -6.2450 h1         1 9HZ       0.046033
     51 HAR          3.1270     2.3300    -2.3680 ha         1 9HZ       0.169000
     52 HAD          1.4290     3.9150     1.0750 ha         1 9HZ       0.153000
     53 HAC          0.3620     5.9610     0.2190 ha         1 9HZ       0.148000
     54 HAG          3.4710     6.3880    -2.6820 ha         1 9HZ       0.148000
     55 HAF          4.5550     4.3460    -1.8360 ha         1 9HZ       0.153000
@<TRIPOS>BOND
     1    13    12 1
     2    13    14 2
     3    12    11 2
     4    15    14 1
     5    14    16 1
     6     6     7 1
     7     6     5 1
     8    11    16 1
     9    11     9 1
    10     8     7 2
    11    16    17 1
    12     5     9 1
    13     5     3 1
    14     9    10 1
    15    17    18 ar
    16    17    24 ar
    17    18    19 ar
    18     3     4 2
    19     3     2 1
    20    10    25 2
    21    25    24 1
    22    25    26 1
    23    24    23 ar
    24    19    20 ar
    25     2     1 1
    26    26    32 ar
    27    26    27 ar
    28    32    31 ar
    29    27    28 ar
    30    23    20 ar
    31    31    29 ar
    32    20    21 1
    33    28    29 ar
    34    29    30 1
    35    21    22 1
    36     1    33 1
    37     1    34 1
    38     1    35 1
    39     5    36 1
    40     6    37 1
    41     6    38 1
    42     7    39 1
    43     8    40 1
    44     8    41 1
    45     9    42 1
    46    15    43 1
    47    15    44 1
    48    15    45 1
    49    18    46 1
    50    19    47 1
    51    22    48 1
    52    22    49 1
    53    22    50 1
    54    23    51 1
    55    27    52 1
    56    28    53 1
    57    31    54 1
    58    32    55 1
@<TRIPOS>SUBSTRUCTURE
     1 9HZ         1 TEMP              0 ****  ****    0 ROOT
