@<TRIPOS>MOLECULE
9HZ
   55    58     1     0     0
SMALL
bcc


@<TRIPOS>ATOM
      1 CBE          0.0000     0.0000     0.0000 c3         1 9HZ       0.265700
      2 OBC          1.4520     0.0000     0.0000 os         1 9HZ      -0.416900
      3 CAZ          2.0610     0.0000     1.1960 c          1 9HZ       0.698100
      4 OBD          1.4030    -0.0170     2.2090 o          1 9HZ      -0.567000
      5 CAY          3.5660     0.0220     1.2760 c3         1 9HZ      -0.134700
      6 CBA          4.0570    -1.2330     1.9990 c3         1 9HZ       0.022800
      7 CBB          3.7190    -2.4510     1.1780 c2         1 9HZ      -0.164200
      8 CBF          4.6630    -3.2930     0.8350 c2         1 9HZ      -0.158000
      9 CAJ          4.0180     1.2650     2.0470 c3         1 9HZ       0.148200
     10 NAI          3.4670     2.4690     1.4150 n2         1 9HZ      -0.502900
     11 CAK          5.5210     1.3720     2.0070 cc         1 9HZ       0.127800
     12 NAU          6.3420     1.3780     3.0170 nd         1 9HZ      -0.295000
     13 NAV          7.5480     1.5360     2.5940 nd         1 9HZ      -0.323000
     14 CAW          7.5540     1.6270     1.2890 cc         1 9HZ       0.159800
     15 CAX          8.7600     1.8320     0.4090 c3         1 9HZ       0.009600
     16 NAL          6.2640     1.5040     0.8800 na         1 9HZ       0.294200
     17 CAM          5.7810     1.4770    -0.4310 ca         1 9HZ      -0.206200
     18 CAO          6.5640     0.8720    -1.4090 ca         1 9HZ      -0.068000
     19 CAP          6.1170     0.7900    -2.7120 ca         1 9HZ      -0.182000
     20 CAQ          4.8760     1.3110    -3.0530 ca         1 9HZ       0.163100
     21 OAS          4.4290     1.2160    -4.3340 os         1 9HZ      -0.298900
     22 CAT          5.2880     0.5680    -5.2740 c3         1 9HZ       0.243700
     23 CAR          4.0950     1.9260    -2.0950 ca         1 9HZ      -0.110000
     24 CAN          4.5450     2.0320    -0.7710 ca         1 9HZ      -0.108900
     25 CAH          3.7070     2.7640     0.1850 ce         1 9HZ       0.493500
     26 CAE          3.0620     3.9940    -0.3270 ca         1 9HZ      -0.157900
     27 CAD          1.8780     4.4560     0.2510 ca         1 9HZ      -0.061500
     28 CAC          1.2800     5.6020    -0.2290 ca         1 9HZ      -0.107500
     29 CAB          1.8520     6.2960    -1.2830 ca         1 9HZ      -0.021600
     30 ClA          1.0950     7.7370    -1.8820 cl         1 9HZ      -0.021400
     31 CAG          3.0270     5.8410    -1.8590 ca         1 9HZ      -0.107500
     32 CAF          3.6360     4.6990    -1.3840 ca         1 9HZ      -0.061500
     33 HBF         -0.3610    -0.9440     0.3900 h1         1 9HZ       0.003033
     34 HBE         -0.3610     0.1340    -1.0120 h1         1 9HZ       0.003033
     35 HBG         -0.3610     0.8100     0.6230 h1         1 9HZ       0.003033
     36 HA0          3.9800     0.0480     0.2750 hc         1 9HZ       0.055700
     37 HBB          3.5740    -1.3050     2.9660 hc         1 9HZ       0.040700
     38 HBA          5.1300    -1.1760     2.1350 hc         1 9HZ       0.040700
     39 HBC          2.6960    -2.6300     0.8710 ha         1 9HZ       0.107000
     40 HBH          5.6860    -3.1140     1.1420 ha         1 9HZ       0.085500
     41 H2           4.4200    -4.1680     0.2450 ha         1 9HZ       0.085500
     42 HAJ          3.6830     1.2060     3.0750 h1         1 9HZ       0.087700
     43 HAZ          9.5770     2.2240     1.0020 hc         1 9HZ       0.017700
     44 HAX          9.0530     0.8850    -0.0280 hc         1 9HZ       0.017700
     45 HAY          8.5160     2.5340    -0.3790 hc         1 9HZ       0.017700
     46 HAO          7.5320     0.4650    -1.1470 ha         1 9HZ       0.129000
     47 HAP          6.7470     0.3490    -3.4740 ha         1 9HZ       0.130000
     48 HAT          4.8080     0.5450    -6.2450 h1         1 9HZ       0.002033
     49 HAU          6.2220     1.1130    -5.3460 h1         1 9HZ       0.002033
     50 HAV          5.4850    -0.4450    -4.9450 h1         1 9HZ       0.002033
     51 HAR          3.1270     2.3300    -2.3680 ha         1 9HZ       0.142000
     52 HAD          1.4290     3.9150     1.0750 ha         1 9HZ       0.122000
     53 HAC          0.3620     5.9610     0.2190 ha         1 9HZ       0.117500
     54 HAG          3.4710     6.3880    -2.6820 ha         1 9HZ       0.117500
     55 HAF          4.5550     4.3460    -1.8360 ha         1 9HZ       0.122000
@<TRIPOS>BOND
     1     1     2 1   
     2     1    33 1   
     3     1    34 1   
     4     1    35 1   
     5     2     3 1   
     6     3     4 2   
     7     3     5 1   
     8     5     6 1   
     9     5     9 1   
    10     5    36 1   
    11     6     7 1   
    12     6    37 1   
    13     6    38 1   
    14     7     8 2   
    15     7    39 1   
    16     8    40 1   
    17     8    41 1   
    18     9    10 1   
    19     9    11 1   
    20     9    42 1   
    21    10    25 2   
    22    11    12 2   
    23    11    16 1   
    24    12    13 1   
    25    13    14 2   
    26    14    15 1   
    27    14    16 1   
    28    15    43 1   
    29    15    44 1   
    30    15    45 1   
    31    16    17 1   
    32    17    18 ar  
    33    17    24 ar  
    34    18    19 ar  
    35    18    46 1   
    36    19    20 ar  
    37    19    47 1   
    38    20    21 1   
    39    20    23 ar  
    40    21    22 1   
    41    22    48 1   
    42    22    49 1   
    43    22    50 1   
    44    23    24 ar  
    45    23    51 1   
    46    24    25 1   
    47    25    26 1   
    48    26    27 ar  
    49    26    32 ar  
    50    27    28 ar  
    51    27    52 1   
    52    28    29 ar  
    53    28    53 1   
    54    29    30 1   
    55    29    31 ar  
    56    31    32 ar  
    57    31    54 1   
    58    32    55 1   
@<TRIPOS>SUBSTRUCTURE
     1 9HZ         1 TEMP              0 ****  ****    0 ROOT
