@<TRIPOS>MOLECULE
molecule
   41    43     1     0     0
SMALL
bcc


@<TRIPOS>ATOM
      1 C1           0.0000     0.0000     0.0000 c3         1 9IP       0.126700
      2 O2           1.4290     0.0000     0.0000 os         1 9IP      -0.320900
      3 C3           2.0500     0.0000     1.2060 ca         1 9IP       0.028800
      4 C4           1.3220    -0.0040     2.3840 ca         1 9IP       0.308200
      5 N5           1.8780    -0.0070     3.6170 nb         1 9IP      -0.618000
      6 C6           3.2290    -0.0070     3.6660 ca         1 9IP       0.365200
      7 C7           4.0430    -0.0030     2.5470 cp         1 9IP      -0.117300
      8 C8           3.4370     0.0010     1.2970 ca         1 9IP      -0.118000
      9 C9           5.4840    -0.0040     2.6750 cp         1 9IP      -0.040000
     10 C10          6.0860     0.5970     3.7800 ca         1 9IP      -0.106000
     11 C11          7.4750     0.5950     3.9050 ca         1 9IP      -0.131000
     12 C12          8.2620    -0.0070     2.9240 ca         1 9IP      -0.105000
     13 C13          7.6600    -0.6090     1.8180 ca         1 9IP      -0.114300
     14 C14          8.5040    -1.2520     0.7700 c3         1 9IP       0.289100
     15 N15          8.8730    -0.3330    -0.2760 nu         1 9IP      -0.804600
     16 C16          9.6120    -0.6920    -1.3940 ca         1 9IP       0.095300
     17 C17         10.0480    -2.0120    -1.5650 ca         1 9IP      -0.185000
     18 C18         10.7860    -2.3710    -2.6870 ca         1 9IP      -0.205300
     19 C19         11.0720    -1.3850    -3.6180 ca         1 9IP       0.341200
     20 N20         10.6750    -0.0980    -3.5030 nb         1 9IP      -0.630000
     21 C21          9.9600     0.2130    -2.3990 ca         1 9IP       0.574200
     22 N22          9.5300     1.5560    -2.2500 nv         1 9IP      -1.091500
     23 C23          6.2710    -0.6070     1.6940 ca         1 9IP      -0.096000
     24 H11A        -0.3610     0.0010    -1.0210 h1         1 9IP       0.045367
     25 H12A        -0.3610    -0.8850     0.5090 h1         1 9IP       0.045367
     26 H13         -0.3610     0.8840     0.5120 h1         1 9IP       0.045367
     27 H4           0.2410    -0.0040     2.3140 h4         1 9IP       0.021100
     28 H6           3.7020    -0.0100     4.6400 h4         1 9IP       0.022100
     29 H8           4.0420     0.0050     0.3980 ha         1 9IP       0.151000
     30 H10          5.4750     1.0650     4.5430 ha         1 9IP       0.139000
     31 H11          7.9420     1.0620     4.7640 ha         1 9IP       0.137000
     32 H12          9.3410    -0.0090     3.0210 ha         1 9IP       0.138000
     33 H141         7.9530    -2.0770     0.3340 h1         1 9IP       0.040700
     34 H142         9.4040    -1.6370     1.2330 h1         1 9IP       0.040700
     35 HN15         8.5800     0.6200    -0.1920 hn         1 9IP       0.443800
     36 H17          9.8080    -2.7590    -0.8180 ha         1 9IP       0.132000
     37 H18         11.1280    -3.3890    -2.8290 ha         1 9IP       0.140000
     38 H19         11.6460    -1.6630    -4.4930 h4         1 9IP       0.014100
     39 H221        10.1210     2.2230    -1.7950 hn         1 9IP       0.428300
     40 H222         8.6550     1.8480    -2.6400 hn         1 9IP       0.428300
     41 H23          5.8040    -1.0740     0.8360 ha         1 9IP       0.142000
@<TRIPOS>BOND
     1     1     2 1
     2     1    24 1
     3     1    25 1
     4     1    26 1
     5     2     3 1
     6     3     4 ar
     7     3     8 ar
     8     4     5 ar
     9     4    27 1
    10     5     6 ar
    11     6     7 ar
    12     6    28 1
    13     7     8 ar
    14     7     9 1
    15     8    29 1
    16     9    23 ar
    17     9    10 ar
    18    10    11 ar
    19    10    30 1
    20    11    12 ar
    21    11    31 1
    22    12    13 ar
    23    12    32 1
    24    13    23 ar
    25    13    14 1
    26    14    15 1
    27    14    33 1
    28    14    34 1
    29    15    16 1
    30    15    35 1
    31    16    21 ar
    32    16    17 ar
    33    17    18 ar
    34    17    36 1
    35    18    19 ar
    36    18    37 1
    37    19    20 ar
    38    19    38 1
    39    20    21 ar
    40    21    22 1
    41    22    39 1
    42    22    40 1
    43    23    41 1
@<TRIPOS>SUBSTRUCTURE
     1 9IP         1 TEMP              0 ****  ****    0 ROOT
