@<TRIPOS>MOLECULE
molecule
   58    62     1     0     0
SMALL
bcc


@<TRIPOS>ATOM
      1 O32          0.0000     0.0000     0.0000 o          1 9J0      -0.427100
      2 C31          1.2160     0.0000     0.0000 c          1 9J0       0.507700
      3 N33          1.8900     0.0000     1.1660 nz         1 9J0      -0.677400
      4 C27          1.9530    -0.0060    -1.2790 ca         1 9J0      -0.232600
      5 C26          1.2560    -0.0110    -2.4900 ca         1 9J0      -0.017000
      6 C25          1.9460    -0.0160    -3.6810 ca         1 9J0      -0.077300
      7 C30          1.1950    -0.0230    -4.9870 c3         1 9J0      -0.050800
      8 C28          3.3510    -0.0000    -1.2820 ca         1 9J0      -0.105000
      9 C29          4.0350    -0.0050    -2.4760 ca         1 9J0      -0.115000
     10 C24          3.3380    -0.0170    -3.6790 ca         1 9J0       0.137800
     11 N20          4.0350    -0.0230    -4.8890 na         1 9J0       0.013100
     12 N19          3.7770     0.8160    -5.9770 nc         1 9J0      -0.493100
     13 C18          4.6060     0.5560    -6.9480 cd         1 9J0       0.432900
     14 C21          4.6500     1.2440    -8.2890 c3         1 9J0      -0.094000
     15 C23          3.2530     1.2370    -8.9120 c3         1 9J0      -0.086600
     16 C22          5.1190     2.6890    -8.1040 c3         1 9J0      -0.086600
     17 C13          5.4830    -0.5210    -6.5060 ca         1 9J0      -0.363200
     18 C14          5.0870    -0.8490    -5.1960 ca         1 9J0       0.496800
     19 N15          5.7180    -1.8090    -4.5320 nb         1 9J0      -0.733000
     20 C16          6.7190    -2.4780    -5.0640 ca         1 9J0       0.492200
     21 C17          7.1670    -2.2150    -6.3470 ca         1 9J0      -0.286300
     22 C12          6.5530    -1.2190    -7.0940 ca         1 9J0       0.121800
     23 N10          6.9780    -0.9250    -8.3920 na         1 9J0      -0.143000
     24 C9           7.3980     0.2850    -8.8490 cc         1 9J0       0.409400
     25 N8           7.7140     0.1720   -10.1080 nd         1 9J0      -0.684000
     26 C11          7.0550    -1.8050    -9.4410 cc         1 9J0      -0.267600
     27 C7           7.5100    -1.1000   -10.5080 cd         1 9J0       0.440800
     28 C5           7.7500    -1.6360   -11.8720 cd         1 9J0      -0.351800
     29 C4           7.4470    -2.9360   -12.3200 cd         1 9J0       0.342200
     30 N3           7.8020    -3.0280   -13.5750 nc         1 9J0      -0.505800
     31 C6           8.2970    -0.9570   -12.9200 cc         1 9J0      -0.072300
     32 N2           8.3420    -1.8000   -13.9740 na         1 9J0       0.069400
     33 C1           8.8590    -1.4800   -15.3070 c3         1 9J0       0.061600
     34 H1           2.4660     0.8170     1.2190 hn         1 9J0       0.476467
     35 H2           2.4650    -0.8170     1.2190 hn         1 9J0       0.476467
     36 H3           0.1730    -0.0470    -2.4910 ha         1 9J0       0.172000
     37 H4           1.3310     0.9290    -5.4860 hc         1 9J0       0.067700
     38 H5           1.5730    -0.8180    -5.6170 hc         1 9J0       0.067700
     39 H6           0.1410    -0.1830    -4.7960 hc         1 9J0       0.067700
     40 H7           3.8940     0.0090    -0.3450 ha         1 9J0       0.111000
     41 H8           5.1190    -0.0030    -2.4780 ha         1 9J0       0.176000
     42 H9           5.3390     0.7220    -8.9410 hc         1 9J0       0.090700
     43 H10          2.8800     0.2210    -8.9510 hc         1 9J0       0.046700
     44 H11          3.3030     1.6430    -9.9150 hc         1 9J0       0.046700
     45 H12          2.5860     1.8430    -8.3100 hc         1 9J0       0.046700
     46 H13          5.3800     3.1100    -9.0680 hc         1 9J0       0.046700
     47 H14          4.3230     3.2740    -7.6590 hc         1 9J0       0.046700
     48 H15          5.9870     2.7080    -7.4560 hc         1 9J0       0.046700
     49 H16          7.2010    -3.2560    -4.4850 h4         1 9J0       0.043100
     50 H17          7.9930    -2.7790    -6.7640 ha         1 9J0       0.170000
     51 H18          7.4620     1.1930    -8.2620 h5         1 9J0       0.072100
     52 H19          6.7940    -2.8560    -9.4250 h4         1 9J0       0.185000
     53 H20          6.9970    -3.7230   -11.7270 h4         1 9J0       0.044100
     54 H21          8.6410     0.0710   -12.9070 h4         1 9J0       0.187000
     55 H22          8.8000    -2.3590   -15.9370 h1         1 9J0       0.059033
     56 H23          9.8910    -1.1610   -15.2270 h1         1 9J0       0.059033
     57 H24          8.2670    -0.6840   -15.7420 h1         1 9J0       0.059033
     58 H333         1.2400    -0.0050     1.9270 hn         1 9J0       0.476467
@<TRIPOS>BOND
     1     1     2 2
     2    20    19 ar
     3    20    21 ar
     4     8     9 ar
     5     8     4 ar
     6    19    18 ar
     7    21    22 ar
     8     2     3 1
     9     2     4 1
    10     9    10 ar
    11     4     5 ar
    12    18    17 ar
    13    18    11 1
    14    22    23 1
    15    22    17 ar
    16    10    11 1
    17    10     6 ar
    18     5     6 ar
    19    23    24 1
    20    23    26 1
    21    17    13 1
    22    11    12 1
    23    24    25 2
    24    26    27 2
    25     6     7 1
    26    25    27 1
    27    27    28 1
    28    31    28 2
    29    31    32 1
    30    13    12 2
    31    13    14 1
    32    28    29 1
    33    32    33 1
    34    32    30 1
    35    29    30 2
    36    14    16 1
    37    14    15 1
    38     3    34 1
    39     3    35 1
    40     5    36 1
    41     7    37 1
    42     7    38 1
    43     7    39 1
    44     8    40 1
    45     9    41 1
    46    14    42 1
    47    15    43 1
    48    15    44 1
    49    15    45 1
    50    16    46 1
    51    16    47 1
    52    16    48 1
    53    20    49 1
    54    21    50 1
    55    24    51 1
    56    26    52 1
    57    29    53 1
    58    31    54 1
    59    33    55 1
    60    33    56 1
    61    33    57 1
    62    58     3 1
@<TRIPOS>SUBSTRUCTURE
     1 9J0         1 TEMP              0 ****  ****    0 ROOT
