@<TRIPOS>MOLECULE
9J0
   58    62     1     0     0
SMALL
bcc


@<TRIPOS>ATOM
      1 O32          0.0000     0.0000     0.0000 o          1 9J0      -0.437100
      2 C31          1.2160     0.0000     0.0000 c          1 9J0       0.357700
      3 N33          1.8900     0.0000     1.1660 nz         1 9J0       0.201600
      4 C27          1.9530    -0.0060    -1.2790 ca         1 9J0      -0.250600
      5 C26          1.2560    -0.0110    -2.4900 ca         1 9J0       0.026000
      6 C25          1.9460    -0.0160    -3.6810 ca         1 9J0      -0.075300
      7 C30          1.1950    -0.0230    -4.9870 c3         1 9J0       0.047200
      8 C28          3.3510    -0.0000    -1.2820 ca         1 9J0      -0.076000
      9 C29          4.0350    -0.0050    -2.4760 ca         1 9J0      -0.078000
     10 C24          3.3380    -0.0170    -3.6790 ca         1 9J0      -0.025200
     11 N20          4.0350    -0.0230    -4.8890 na         1 9J0       0.449100
     12 N19          3.7770     0.8160    -5.9770 nc         1 9J0      -0.622100
     13 C18          4.6060     0.5560    -6.9480 cd         1 9J0       0.461900
     14 C21          4.6500     1.2440    -8.2890 c3         1 9J0      -0.087000
     15 C23          3.2530     1.2370    -8.9120 c3         1 9J0       0.009900
     16 C22          5.1190     2.6890    -8.1040 c3         1 9J0       0.009900
     17 C13          5.4830    -0.5210    -6.5060 ca         1 9J0      -0.362200
     18 C14          5.0870    -0.8490    -5.1960 ca         1 9J0       0.288800
     19 N15          5.7180    -1.8090    -4.5320 nb         1 9J0      -0.598000
     20 C16          6.7190    -2.4780    -5.0640 ca         1 9J0       0.468200
     21 C17          7.1670    -2.2150    -6.3470 ca         1 9J0      -0.238300
     22 C12          6.5530    -1.2190    -7.0940 ca         1 9J0      -0.037200
     23 N10          6.9780    -0.9250    -8.3920 na         1 9J0       0.366000
     24 C9           7.3980     0.2850    -8.8490 cc         1 9J0       0.216400
     25 N8           7.7140     0.1720   -10.1080 nd         1 9J0      -0.600000
     26 C11          7.0550    -1.8050    -9.4410 cc         1 9J0      -0.438600
     27 C7           7.5100    -1.1000   -10.5080 cd         1 9J0       0.437800
     28 C5           7.7500    -1.6360   -11.8720 cd         1 9J0      -0.357800
     29 C4           7.4470    -2.9360   -12.3200 cd         1 9J0       0.401200
     30 N3           7.8020    -3.0280   -13.5750 nc         1 9J0      -0.645800
     31 C6           8.2970    -0.9570   -12.9200 cc         1 9J0      -0.215300
     32 N2           8.3420    -1.8000   -13.9740 na         1 9J0       0.494400
     33 C1           8.8590    -1.4800   -15.3070 c3         1 9J0       0.021600
     34 H1           2.4660     0.8170     1.2190 hn         1 9J0       0.245800
     35 H2           2.4650    -0.8170     1.2190 hn         1 9J0       0.245800
     36 H3           0.1730    -0.0470    -2.4910 ha         1 9J0       0.138000
     37 H4           1.3310     0.9290    -5.4860 hc         1 9J0       0.032033
     38 H5           1.5730    -0.8180    -5.6170 hc         1 9J0       0.032033
     39 H6           0.1410    -0.1830    -4.7960 hc         1 9J0       0.032033
     40 H7           3.8940     0.0090    -0.3450 ha         1 9J0       0.082000
     41 H8           5.1190    -0.0030    -2.4780 ha         1 9J0       0.141000
     42 H9           5.3390     0.7220    -8.9410 hc         1 9J0       0.062700
     43 H10          2.8800     0.2210    -8.9510 hc         1 9J0       0.012533
     44 H11          3.3030     1.6430    -9.9150 hc         1 9J0       0.012533
     45 H12          2.5860     1.8430    -8.3100 hc         1 9J0       0.012533
     46 H13          5.3800     3.1100    -9.0680 hc         1 9J0       0.012533
     47 H14          4.3230     3.2740    -7.6590 hc         1 9J0       0.012533
     48 H15          5.9870     2.7080    -7.4560 hc         1 9J0       0.012533
     49 H16          7.2010    -3.2560    -4.4850 h4         1 9J0      -0.008900
     50 H17          7.9930    -2.7790    -6.7640 ha         1 9J0       0.141000
     51 H18          7.4620     1.1930    -8.2620 h5         1 9J0       0.032100
     52 H19          6.7940    -2.8560    -9.4250 h4         1 9J0       0.163000
     53 H20          6.9970    -3.7230   -11.7270 h4         1 9J0       0.000100
     54 H21          8.6410     0.0710   -12.9070 h4         1 9J0       0.159000
     55 H22          8.8000    -2.3590   -15.9370 h1         1 9J0       0.024033
     56 H23          9.8910    -1.1610   -15.2270 h1         1 9J0       0.024033
     57 H24          8.2670    -0.6840   -15.7420 h1         1 9J0       0.024033
     58 H333         1.2400    -0.0050     1.9270 hn         1 9J0       0.245800
@<TRIPOS>BOND
     1     1     2 2   
     2     2     3 1   
     3     2     4 1   
     4     3    34 1   
     5     3    35 1   
     6     3    58 1   
     7     4     5 ar  
     8     4     8 ar  
     9     5     6 ar  
    10     5    36 1   
    11     6     7 1   
    12     6    10 ar  
    13     7    37 1   
    14     7    38 1   
    15     7    39 1   
    16     8     9 ar  
    17     8    40 1   
    18     9    10 ar  
    19     9    41 1   
    20    10    11 1   
    21    11    12 1   
    22    11    18 1   
    23    12    13 2   
    24    13    14 1   
    25    13    17 1   
    26    14    15 1   
    27    14    16 1   
    28    14    42 1   
    29    15    43 1   
    30    15    44 1   
    31    15    45 1   
    32    16    46 1   
    33    16    47 1   
    34    16    48 1   
    35    17    18 ar  
    36    17    22 ar  
    37    18    19 ar  
    38    19    20 ar  
    39    20    21 ar  
    40    20    49 1   
    41    21    22 ar  
    42    21    50 1   
    43    22    23 1   
    44    23    24 1   
    45    23    26 1   
    46    24    25 2   
    47    24    51 1   
    48    25    27 1   
    49    26    27 2   
    50    26    52 1   
    51    27    28 1   
    52    28    29 1   
    53    28    31 2   
    54    29    30 2   
    55    29    53 1   
    56    30    32 1   
    57    31    32 1   
    58    31    54 1   
    59    32    33 1   
    60    33    55 1   
    61    33    56 1   
    62    33    57 1   
@<TRIPOS>SUBSTRUCTURE
     1 9J0         1 TEMP              0 ****  ****    0 ROOT
