@<TRIPOS>MOLECULE
9J1
   63    66     1     0     0
SMALL
bcc


@<TRIPOS>ATOM
      1 N1           0.0000     0.0000     0.0000 n          1 9J1       0.025000
      2 C2           0.2100     3.3700    -2.4140 ca         1 9J1       0.123100
      3 N2           2.0370     0.0000     1.1540 ns         1 9J1      -0.125500
      4 N3           1.8870     1.7100    -6.9860 n          1 9J1      -0.047000
      5 C4           1.3280     5.3790    -3.1170 ca         1 9J1      -0.071000
      6 N4           8.2750    -1.9380    -5.2390 n1         1 9J1      -0.389800
      7 C6          -1.0630     5.3270    -2.9570 ca         1 9J1      -0.059000
      8 C7          -0.9840     1.4340    -1.7210 c3         1 9J1       0.195400
      9 C9           1.3460     0.0000     0.0000 c          1 9J1       0.590500
     10 C1          -1.0120     4.0090    -2.5420 ca         1 9J1      -0.207000
     11 C3           1.3860     4.0570    -2.7020 ca         1 9J1       0.069100
     12 C5           0.1050     6.0100    -3.2440 ca         1 9J1      -0.126000
     13 O1           2.5870     3.4340    -2.5770 os         1 9J1      -0.202200
     14 O2           0.2620     2.0750    -1.9990 os         1 9J1      -0.273900
     15 C8          -0.7260    -0.0070    -1.2730 c3         1 9J1       0.043000
     16 C10          1.3880     0.0020     2.3360 c          1 9J1       0.611700
     17 C11         -0.0280     0.0030     2.3510 cc         1 9J1      -0.292200
     18 C12         -0.6970     0.0020     1.1770 cd         1 9J1      -0.093400
     19 C13          2.9990     2.6320    -3.5930 ca         1 9J1       0.152100
     20 C14          4.1510     1.8900    -3.4510 ca         1 9J1      -0.087300
     21 C15          4.5800     1.0600    -4.4990 ca         1 9J1      -0.002000
     22 C16          3.8210     0.9930    -5.6960 ca         1 9J1      -0.035000
     23 C17          2.6460     1.7640    -5.8140 ca         1 9J1      -0.039400
     24 C18          2.2470     2.5660    -4.7680 ca         1 9J1      -0.142000
     25 C19          5.7490     0.2930    -4.3800 ca         1 9J1      -0.057000
     26 C20          6.1450    -0.5150    -5.4330 ca         1 9J1       0.031000
     27 C21          5.3830    -0.5720    -6.6150 ca         1 9J1      -0.088000
     28 C22          4.2480     0.1630    -6.7470 ca         1 9J1      -0.079000
     29 O3           1.9440    -0.0020    -1.0580 o          1 9J1      -0.685500
     30 O4           2.0130     0.0030     3.3810 o          1 9J1      -0.654500
     31 C23          7.3370    -1.3010    -5.3190 cg         1 9J1       0.234800
     32 C24          4.9480     1.9700    -2.1750 c3         1 9J1       0.062200
     33 C25          2.1440     2.5670    -7.9940 c          1 9J1       0.577100
     34 O5           3.0340     3.3830    -7.8850 o          1 9J1      -0.626100
     35 C26          1.3250     2.5090    -9.2580 c3         1 9J1      -0.127400
     36 C27          0.8120     0.7250    -7.1180 c3         1 9J1       0.075300
     37 C28          1.8190     3.5790   -10.2340 c3         1 9J1       0.030900
     38 H1           3.0380    -0.0000     1.1410 hn         1 9J1       0.207500
     39 H2           2.2410     5.9160    -3.3430 ha         1 9J1       0.123000
     40 H3          -2.0190     5.8270    -3.0580 ha         1 9J1       0.104000
     41 H4          -1.5950     1.4290    -2.6150 h1         1 9J1       0.010200
     42 H5          -1.4990     1.9710    -0.9340 h1         1 9J1       0.010200
     43 H6          -1.9280     3.4760    -2.3180 ha         1 9J1       0.119000
     44 H7           0.0590     7.0420    -3.5680 ha         1 9J1       0.112000
     45 H8          -1.6670    -0.4910    -1.0420 h1         1 9J1       0.044200
     46 H9          -0.1750    -0.7060    -1.8910 h1         1 9J1       0.044200
     47 H10         -0.5550     0.0040     3.2970 ha         1 9J1       0.150000
     48 H11         -1.7800     0.0020     1.1580 h4         1 9J1       0.129000
     49 H12          1.3420     3.1540    -4.8660 ha         1 9J1       0.125000
     50 H13          6.3350     0.3360    -3.4690 ha         1 9J1       0.123000
     51 H14          5.7000    -1.2070    -7.4340 ha         1 9J1       0.110000
     52 H15          3.6730     0.1090    -7.6620 ha         1 9J1       0.108000
     53 H16          5.1000     0.9720    -1.7800 hc         1 9J1       0.015367
     54 H17          4.4090     2.5670    -1.4490 hc         1 9J1       0.015367
     55 H18          5.9090     2.4280    -2.3770 hc         1 9J1       0.015367
     56 H19          1.7070     1.7240    -9.9000 hc         1 9J1       0.034700
     57 H20          0.2920     2.3020    -9.0100 hc         1 9J1       0.034700
     58 H21         -0.1410     1.2350    -7.1750 h1         1 9J1       0.010367
     59 H22          0.8180     0.0660    -6.2570 h1         1 9J1       0.010367
     60 H23          0.9650     0.1420    -8.0190 h1         1 9J1       0.010367
     61 H24          1.7860     4.5500    -9.7520 hc         1 9J1       0.008367
     62 H25          1.1820     3.5900   -11.1100 hc         1 9J1       0.008367
     63 H26          2.8370     3.3570   -10.5290 hc         1 9J1       0.008367
@<TRIPOS>BOND
     1     1     9 1   
     2     1    15 1   
     3     1    18 1   
     4     2    10 ar  
     5     2    11 ar  
     6     2    14 1   
     7     3     9 1   
     8     3    16 1   
     9     3    38 1   
    10     4    23 1   
    11     4    33 1   
    12     4    36 1   
    13     5    11 ar  
    14     5    12 ar  
    15     5    39 1   
    16     6    31 3   
    17     7    10 ar  
    18     7    12 ar  
    19     7    40 1   
    20     8    14 1   
    21     8    15 1   
    22     8    41 1   
    23     8    42 1   
    24     9    29 2   
    25    10    43 1   
    26    11    13 1   
    27    12    44 1   
    28    13    19 1   
    29    15    45 1   
    30    15    46 1   
    31    16    17 1   
    32    16    30 2   
    33    17    18 2   
    34    17    47 1   
    35    18    48 1   
    36    19    20 ar  
    37    19    24 ar  
    38    20    21 ar  
    39    20    32 1   
    40    21    22 ar  
    41    21    25 ar  
    42    22    23 ar  
    43    22    28 ar  
    44    23    24 ar  
    45    24    49 1   
    46    25    26 ar  
    47    25    50 1   
    48    26    27 ar  
    49    26    31 1   
    50    27    28 ar  
    51    27    51 1   
    52    28    52 1   
    53    32    53 1   
    54    32    54 1   
    55    32    55 1   
    56    33    34 2   
    57    33    35 1   
    58    35    37 1   
    59    35    56 1   
    60    35    57 1   
    61    36    58 1   
    62    36    59 1   
    63    36    60 1   
    64    37    61 1   
    65    37    62 1   
    66    37    63 1   
@<TRIPOS>SUBSTRUCTURE
     1 9J1         1 TEMP              0 ****  ****    0 ROOT
