@<TRIPOS>MOLECULE
molecule
   63    66     1     0     0
SMALL
bcc


@<TRIPOS>ATOM
      1 N1           0.0000     0.0000     0.0000 n          1 9J1      -0.378000
      2 C2           0.2100     3.3700    -2.4140 ca         1 9J1       0.123100
      3 N2           2.0370     0.0000     1.1540 ns         1 9J1      -0.559500
      4 N3           1.8870     1.7100    -6.9860 n          1 9J1      -0.415000
      5 C4           1.3280     5.3790    -3.1170 ca         1 9J1      -0.093000
      6 N4           8.2750    -1.9380    -5.2390 n1         1 9J1      -0.369800
      7 C6          -1.0630     5.3270    -2.9570 ca         1 9J1      -0.089000
      8 C7          -0.9840     1.4340    -1.7210 c3         1 9J1       0.129400
      9 C9           1.3460     0.0000     0.0000 c          1 9J1       0.808500
     10 C1          -1.0120     4.0090    -2.5420 ca         1 9J1      -0.221000
     11 C3           1.3860     4.0570    -2.7020 ca         1 9J1       0.072100
     12 C5           0.1050     6.0100    -3.2440 ca         1 9J1      -0.155000
     13 O1           2.5870     3.4340    -2.5770 os         1 9J1      -0.228200
     14 O2           0.2620     2.0750    -1.9990 os         1 9J1      -0.294900
     15 C8          -0.7260    -0.0070    -1.2730 c3         1 9J1       0.119000
     16 C10          1.3880     0.0020     2.3360 c          1 9J1       0.702700
     17 C11         -0.0280     0.0030     2.3510 cc         1 9J1      -0.321200
     18 C12         -0.6970     0.0020     1.1770 cd         1 9J1       0.027600
     19 C13          2.9990     2.6320    -3.5930 ca         1 9J1       0.148100
     20 C14          4.1510     1.8900    -3.4510 ca         1 9J1      -0.080300
     21 C15          4.5800     1.0600    -4.4990 ca         1 9J1      -0.007000
     22 C16          3.8210     0.9930    -5.6960 ca         1 9J1      -0.039000
     23 C17          2.6460     1.7640    -5.8140 ca         1 9J1       0.081600
     24 C18          2.2470     2.5660    -4.7680 ca         1 9J1      -0.163000
     25 C19          5.7490     0.2930    -4.3800 ca         1 9J1      -0.072000
     26 C20          6.1450    -0.5150    -5.4330 ca         1 9J1      -0.015000
     27 C21          5.3830    -0.5720    -6.6150 ca         1 9J1      -0.111000
     28 C22          4.2480     0.1630    -6.7470 ca         1 9J1      -0.102000
     29 O3           1.9440    -0.0020    -1.0580 o          1 9J1      -0.631500
     30 O4           2.0130     0.0030     3.3810 o          1 9J1      -0.618500
     31 C23          7.3370    -1.3010    -5.3190 cg         1 9J1       0.241800
     32 C24          4.9480     1.9700    -2.1750 c3         1 9J1      -0.041800
     33 C25          2.1440     2.5670    -7.9940 c          1 9J1       0.661100
     34 O5           3.0340     3.3830    -7.8850 o          1 9J1      -0.583100
     35 C26          1.3250     2.5090    -9.2580 c3         1 9J1      -0.175400
     36 C27          0.8120     0.7250    -7.1180 c3         1 9J1       0.098300
     37 C28          1.8190     3.5790   -10.2340 c3         1 9J1      -0.070100
     38 H1           3.0380    -0.0000     1.1410 hn         1 9J1       0.364500
     39 H2           2.2410     5.9160    -3.3430 ha         1 9J1       0.156000
     40 H3          -2.0190     5.8270    -3.0580 ha         1 9J1       0.135000
     41 H4          -1.5950     1.4290    -2.6150 h1         1 9J1       0.045700
     42 H5          -1.4990     1.9710    -0.9340 h1         1 9J1       0.045700
     43 H6          -1.9280     3.4760    -2.3180 ha         1 9J1       0.134000
     44 H7           0.0590     7.0420    -3.5680 ha         1 9J1       0.140000
     45 H8          -1.6670    -0.4910    -1.0420 h1         1 9J1       0.077700
     46 H9          -0.1750    -0.7060    -1.8910 h1         1 9J1       0.077700
     47 H10         -0.5550     0.0040     3.2970 ha         1 9J1       0.178000
     48 H11         -1.7800     0.0020     1.1580 h4         1 9J1       0.158000
     49 H12          1.3420     3.1540    -4.8660 ha         1 9J1       0.148000
     50 H13          6.3350     0.3360    -3.4690 ha         1 9J1       0.149000
     51 H14          5.7000    -1.2070    -7.4340 ha         1 9J1       0.138000
     52 H15          3.6730     0.1090    -7.6620 ha         1 9J1       0.137000
     53 H16          5.1000     0.9720    -1.7800 hc         1 9J1       0.050033
     54 H17          4.4090     2.5670    -1.4490 hc         1 9J1       0.050033
     55 H18          5.9090     2.4280    -2.3770 hc         1 9J1       0.050033
     56 H19          1.7070     1.7240    -9.9000 hc         1 9J1       0.064200
     57 H20          0.2920     2.3020    -9.0100 hc         1 9J1       0.064200
     58 H21         -0.1410     1.2350    -7.1750 h1         1 9J1       0.041367
     59 H22          0.8180     0.0660    -6.2570 h1         1 9J1       0.041367
     60 H23          0.9650     0.1420    -8.0190 h1         1 9J1       0.041367
     61 H24          1.7860     4.5500    -9.7520 hc         1 9J1       0.044033
     62 H25          1.1820     3.5900   -11.1100 hc         1 9J1       0.044033
     63 H26          2.8370     3.3570   -10.5290 hc         1 9J1       0.044033
@<TRIPOS>BOND
     1    29     9 2
     2    15     8 1
     3    15     1 1
     4     9     1 1
     5     9     3 1
     6     8    14 1
     7     1    18 1
     8     3    16 1
     9    18    17 2
    10    14     2 1
    11    16    17 1
    12    16    30 2
    13    10     2 ar
    14    10     7 ar
    15     2    11 ar
    16     7    12 ar
    17    11    13 1
    18    11     5 ar
    19    13    19 1
    20    12     5 ar
    21    19    24 ar
    22    19    20 ar
    23    24    23 ar
    24    36     4 1
    25    32    20 1
    26    20    21 ar
    27    23     4 1
    28    23    22 ar
    29     4    33 1
    30    33    34 2
    31    33    35 1
    32    21    22 ar
    33    21    25 ar
    34    22    28 ar
    35    35    37 1
    36    25    26 ar
    37    28    27 ar
    38    26    27 ar
    39    26    31 1
    40    31     6 3
    41     3    38 1
    42     5    39 1
    43     7    40 1
    44     8    41 1
    45     8    42 1
    46    10    43 1
    47    12    44 1
    48    15    45 1
    49    15    46 1
    50    17    47 1
    51    18    48 1
    52    24    49 1
    53    25    50 1
    54    27    51 1
    55    28    52 1
    56    32    53 1
    57    32    54 1
    58    32    55 1
    59    35    56 1
    60    35    57 1
    61    36    58 1
    62    36    59 1
    63    36    60 1
    64    37    61 1
    65    37    62 1
    66    37    63 1
@<TRIPOS>SUBSTRUCTURE
     1 9J1         1 TEMP              0 ****  ****    0 ROOT
