@<TRIPOS>MOLECULE
9J2
   51    54     1     0     0
SMALL
bcc


@<TRIPOS>ATOM
      1 CBD          0.0000     0.0000     0.0000 c3         1 9J2       0.268700
      2 OBC          1.4520     0.0000     0.0000 os         1 9J2      -0.418900
      3 CAZ          2.0620     0.0000     1.1960 c          1 9J2       0.694100
      4 OBB          1.4100    -0.1200     2.2050 o          1 9J2      -0.562000
      5 CAV          3.5580     0.1500     1.2790 c3         1 9J2      -0.140700
      6 CBA          4.2030    -1.2330     1.4030 c3         1 9J2       0.016900
      7 CAJ          3.9210     0.9930     2.5020 c3         1 9J2       0.149200
      8 NAI          3.2060     2.2740     2.4510 n2         1 9J2      -0.499900
      9 CAK          5.3980     1.2900     2.5000 cc         1 9J2       0.134800
     10 NAO          6.2750     0.9570     3.4020 nd         1 9J2      -0.293000
     11 NAP          7.4300     1.4230     3.0760 nd         1 9J2      -0.323000
     12 CAQ          7.3470     2.0660     1.9400 cc         1 9J2       0.168800
     13 CAY          8.4700     2.7720     1.2240 c3         1 9J2       0.007600
     14 NAL          6.0550     1.9750     1.5300 na         1 9J2       0.277200
     15 CAM          5.5000     2.4480     0.3390 ca         1 9J2      -0.111200
     16 CAR          6.2810     2.4140    -0.8090 ca         1 9J2      -0.168000
     17 CAS          5.7630     2.8400    -2.0220 ca         1 9J2       0.186100
     18 OAW          6.5330     2.8060    -3.1400 os         1 9J2      -0.300900
     19 CAX          5.9340     3.2600    -4.3550 c3         1 9J2       0.244700
     20 CAT          4.4540     3.3020    -2.0930 ca         1 9J2      -0.206000
     21 CAU          3.6770     3.3520    -0.9590 ca         1 9J2      -0.015000
     22 CAN          4.1930     2.9400     0.2800 ca         1 9J2      -0.202900
     23 CAG          3.3430     3.0910     1.4630 ce         1 9J2       0.492500
     24 CAA          2.5390     4.3320     1.5320 ca         1 9J2      -0.155900
     25 CAB          1.3330     4.3490     2.2330 ca         1 9J2      -0.064000
     26 CAC          0.5890     5.5090     2.2940 ca         1 9J2      -0.108000
     27 CAD          1.0370     6.6550     1.6610 ca         1 9J2      -0.021600
     28 ClA          0.0950     8.1130     1.7420 cl         1 9J2      -0.024400
     29 CAE          2.2330     6.6460     0.9640 ca         1 9J2      -0.108000
     30 CAF          2.9890     5.4930     0.9010 ca         1 9J2      -0.064000
     31 HBE         -0.3610     0.0920    -1.0170 h1         1 9J2       0.002033
     32 HBF         -0.3610    -0.9270     0.4290 h1         1 9J2       0.002033
     33 HBD         -0.3610     0.8350     0.5880 h1         1 9J2       0.002033
     34 HAV          3.9220     0.6380     0.3830 hc         1 9J2       0.053700
     35 HBA          3.5080    -1.9880     1.0560 hc         1 9J2       0.017033
     36 HBB          4.4550    -1.4220     2.4390 hc         1 9J2       0.017033
     37 HBC          5.1030    -1.2670     0.8010 hc         1 9J2       0.017033
     38 HAJ          3.6560     0.4640     3.4100 h1         1 9J2       0.089700
     39 HA2          8.1040     3.7020     0.8070 hc         1 9J2       0.019033
     40 HA0          9.2700     2.9800     1.9240 hc         1 9J2       0.019033
     41 HA1          8.8430     2.1410     0.4260 hc         1 9J2       0.019033
     42 HAR          7.2970     2.0410    -0.7580 ha         1 9J2       0.145000
     43 HAZ          5.6300     4.2940    -4.2420 h1         1 9J2       0.002367
     44 HAY          5.0680     2.6510    -4.5800 h1         1 9J2       0.002367
     45 HAX          6.6520     3.1810    -5.1630 h1         1 9J2       0.002367
     46 HAT          4.0490     3.6350    -3.0410 ha         1 9J2       0.130000
     47 HAU          2.6580     3.7140    -1.0230 ha         1 9J2       0.125000
     48 HAB          0.9820     3.4520     2.7290 ha         1 9J2       0.123000
     49 HAC         -0.3480     5.5220     2.8380 ha         1 9J2       0.117500
     50 HAE          2.5790     7.5470     0.4720 ha         1 9J2       0.117500
     51 HAF          3.9240     5.4870     0.3550 ha         1 9J2       0.123000
@<TRIPOS>BOND
     1     1     2 1   
     2     1    31 1   
     3     1    32 1   
     4     1    33 1   
     5     2     3 1   
     6     3     4 2   
     7     3     5 1   
     8     5     6 1   
     9     5     7 1   
    10     5    34 1   
    11     6    35 1   
    12     6    36 1   
    13     6    37 1   
    14     7     8 1   
    15     7     9 1   
    16     7    38 1   
    17     8    23 2   
    18     9    10 2   
    19     9    14 1   
    20    10    11 1   
    21    11    12 2   
    22    12    13 1   
    23    12    14 1   
    24    13    39 1   
    25    13    40 1   
    26    13    41 1   
    27    14    15 1   
    28    15    16 ar  
    29    15    22 ar  
    30    16    17 ar  
    31    16    42 1   
    32    17    18 1   
    33    17    20 ar  
    34    18    19 1   
    35    19    43 1   
    36    19    44 1   
    37    19    45 1   
    38    20    21 ar  
    39    20    46 1   
    40    21    22 ar  
    41    21    47 1   
    42    22    23 1   
    43    23    24 1   
    44    24    25 ar  
    45    24    30 ar  
    46    25    26 ar  
    47    25    48 1   
    48    26    27 ar  
    49    26    49 1   
    50    27    28 1   
    51    27    29 ar  
    52    29    30 ar  
    53    29    50 1   
    54    30    51 1   
@<TRIPOS>SUBSTRUCTURE
     1 9J2         1 TEMP              0 ****  ****    0 ROOT
