@<TRIPOS>MOLECULE
molecule
   19    18     1     0     0
SMALL
bcc


@<TRIPOS>ATOM
      1 OAA          0.0000     0.0000     0.0000 o          1 9J3      -0.853300
      2 CAC          1.3410     0.0000     0.0000 c          1 9J3       0.890600
      3 OAB          1.9460     0.0000     1.0470 o          1 9J3      -0.853300
      4 CAD          2.0950    -0.0000    -1.3050 c3         1 9J3      -0.174400
      5 CAE          3.6000     0.0000    -1.0260 c3         1 9J3      -0.104400
      6 CAF          4.3530    -0.0000    -2.3310 c          1 9J3       0.618100
      7 OAG          3.7490    -0.0000    -3.3770 o          1 9J3      -0.568000
      8 OAH          5.6960    -0.0000    -2.3310 os         1 9J3      -0.443900
      9 CAI          6.3550    -0.0000    -3.6250 c3         1 9J3       0.144400
     10 CAJ          7.8710     0.0000    -3.4250 c3         1 9J3      -0.096100
     11 H2           1.8330    -0.8840    -1.8730 hc         1 9J3       0.044700
     12 H3           1.8330     0.8840    -1.8730 hc         1 9J3       0.044700
     13 H4           3.8620    -0.8840    -0.4580 hc         1 9J3       0.076700
     14 H5           3.8620     0.8840    -0.4580 hc         1 9J3       0.076700
     15 H6           6.0640    -0.8840    -4.1780 h1         1 9J3       0.040700
     16 H7           6.0640     0.8840    -4.1780 h1         1 9J3       0.040700
     17 H8           8.3630    -0.0000    -4.3900 hc         1 9J3       0.038700
     18 H9           8.1620     0.8850    -2.8710 hc         1 9J3       0.038700
     19 H10          8.1620    -0.8850    -2.8710 hc         1 9J3       0.038700
@<TRIPOS>BOND
     1    10     9 1
     2     9     8 1
     3     8     6 1
     4     5     6 1
     5     5     4 1
     6     6     7 2
     7     4     2 1
     8     3     2 1
     9     2     1 1
    10     4    11 1
    11     4    12 1
    12     5    13 1
    13     5    14 1
    14     9    15 1
    15     9    16 1
    16    10    17 1
    17    10    18 1
    18    10    19 1
@<TRIPOS>SUBSTRUCTURE
     1 9J3         1 TEMP              0 ****  ****    0 ROOT
