@<TRIPOS>MOLECULE
9J4
   57    60     1     0     0
SMALL
bcc


@<TRIPOS>ATOM
      1 C18          0.0000     0.0000     0.0000 c3         1 9J4       0.020600
      2 C17          1.5490     0.0000     0.0000 c3         1 9J4      -0.100800
      3 C16          1.9270     0.0000     1.4950 c3         1 9J4      -0.089000
      4 C15          0.7270    -0.5900     2.2530 c3         1 9J4       0.134500
      5 C19         -0.3410    -0.9290     1.1920 c3         1 9J4      -0.147400
      6 C20          3.1680    -0.8660     1.7210 c3         1 9J4      -0.014100
      7 C22          2.1940     1.4310     1.9680 c3         1 9J4      -0.014100
      8 C23          1.7640     2.6290     6.6840 ca         1 9J4      -0.084000
      9 C24          2.0890     3.8250     7.2910 ca         1 9J4      -0.085500
     10 C27          0.6390     1.9240     8.6960 ca         1 9J4      -0.084000
     11 C1           0.4900    -1.2740     5.2440 cc         1 9J4      -0.398300
     12 N2          -0.1470    -1.6510     6.4090 na         1 9J4       0.725200
     13 N3          -0.7730    -2.9010     6.4900 nc         1 9J4      -0.547800
     14 C4          -0.7730    -3.7280     5.4860 cd         1 9J4       0.475200
     15 C5          -0.1370    -3.3970     4.2670 cd         1 9J4      -0.508900
     16 C6           0.5020    -2.1580     4.1400 cc         1 9J4       0.307600
     17 C7           1.0140    -0.0080     5.4290 cd         1 9J4      -0.097000
     18 C8           0.6840     0.3820     6.7360 cd         1 9J4      -0.016200
     19 C9          -0.0250    -0.6540     7.3090 cc         1 9J4      -0.206100
     20 N10          1.1300    -1.8070     2.9640 nu         1 9J4      -0.445600
     21 N12         -0.8550    -5.4880     3.2350 nz         1 9J4       0.209600
     22 O13          0.4850    -4.0960     2.1340 o          1 9J4      -0.568100
     23 C14          1.0360     1.6700     7.3850 ca         1 9J4      -0.062800
     24 N21          2.0630    -1.2070    -0.6610 nz         1 9J4       0.058400
     25 C25          1.6970     4.0710     8.5960 ca         1 9J4      -0.062000
     26 C26          0.9780     3.1200     9.2970 ca         1 9J4      -0.085500
     27 C28          2.0840     1.2580    -0.6890 c3         1 9J4      -0.004100
     28 H1          -0.3820     0.9990     0.1720 hc         1 9J4       0.056200
     29 H2          -0.3820    -0.4110    -0.9270 hc         1 9J4       0.056200
     30 H3           0.3350     0.1410     2.9500 h1         1 9J4       0.083700
     31 H4          -0.8370    -0.3090     1.9300 hc         1 9J4       0.075200
     32 H5          -0.6360    -1.9640     1.0730 hc         1 9J4       0.075200
     33 H6           3.3830    -0.9190     2.7810 hc         1 9J4       0.031367
     34 H7           2.9870    -1.8640     1.3390 hc         1 9J4       0.031367
     35 H8           4.0130    -0.4290     1.2030 hc         1 9J4       0.031367
     36 H9           3.0370     1.8400     1.4250 hc         1 9J4       0.031367
     37 H10          2.4160     1.4250     3.0280 hc         1 9J4       0.031367
     38 H11          1.3170     2.0410     1.7860 hc         1 9J4       0.031367
     39 H12          2.0730     2.4380     5.6630 ha         1 9J4       0.097500
     40 H13          2.6530     4.5730     6.7470 ha         1 9J4       0.115500
     41 H14          0.0750     1.1810     9.2460 ha         1 9J4       0.097500
     42 H15         -1.2640    -4.6880     5.5880 h4         1 9J4      -0.026900
     43 H16          1.5710     0.5720     4.7030 ha         1 9J4       0.137000
     44 H17         -0.4240    -0.6630     8.3160 h4         1 9J4       0.181000
     45 H18          1.8360    -2.4010     2.5780 hn         1 9J4       0.336800
     46 H19         -1.8120    -5.2720     3.4340 hn         1 9J4       0.248133
     47 H20         -0.7990    -5.9920     2.3720 hn         1 9J4       0.248133
     48 H21          1.7110    -1.2500    -1.5970 hn         1 9J4       0.233133
     49 H22          3.0630    -1.1760    -0.6830 hn         1 9J4       0.233133
     50 H24          1.9570     5.0090     9.0700 ha         1 9J4       0.119000
     51 H25          0.6720     3.3180    10.3170 ha         1 9J4       0.115500
     52 H26          1.5700     2.1290    -0.3000 hc         1 9J4       0.046367
     53 H27          3.1460     1.3500    -0.4980 hc         1 9J4       0.046367
     54 H28          1.9140     1.1850    -1.7560 hc         1 9J4       0.046367
     55 H123        -0.4780    -6.0470     3.9750 hn         1 9J4       0.248133
     56 H213         1.7760    -2.0170    -0.1480 hn         1 9J4       0.233133
     57 C11         -0.1460    -4.3440     3.1450 c          1 9J4       0.399700
@<TRIPOS>BOND
     1     1     2 1   
     2     1     5 1   
     3     1    28 1   
     4     1    29 1   
     5     2     3 1   
     6     2    24 1   
     7     2    27 1   
     8     3     4 1   
     9     3     6 1   
    10     3     7 1   
    11     4     5 1   
    12     4    20 1   
    13     4    30 1   
    14     5    31 1   
    15     5    32 1   
    16     6    33 1   
    17     6    34 1   
    18     6    35 1   
    19     7    36 1   
    20     7    37 1   
    21     7    38 1   
    22     8     9 ar  
    23     8    23 ar  
    24     8    39 1   
    25     9    25 ar  
    26     9    40 1   
    27    10    23 ar  
    28    10    26 ar  
    29    10    41 1   
    30    11    12 1   
    31    11    16 1   
    32    11    17 2   
    33    12    13 1   
    34    12    19 1   
    35    13    14 2   
    36    14    15 1   
    37    14    42 1   
    38    15    16 2   
    39    15    57 1   
    40    16    20 1   
    41    17    18 1   
    42    17    43 1   
    43    18    19 2   
    44    18    23 1   
    45    19    44 1   
    46    20    45 1   
    47    21    46 1   
    48    21    47 1   
    49    21    55 1   
    50    21    57 1   
    51    22    57 2   
    52    24    48 1   
    53    24    49 1   
    54    24    56 1   
    55    25    26 ar  
    56    25    50 1   
    57    26    51 1   
    58    27    52 1   
    59    27    53 1   
    60    27    54 1   
@<TRIPOS>SUBSTRUCTURE
     1 9J4         1 TEMP              0 ****  ****    0 ROOT
