@<TRIPOS>MOLECULE
9J5
   54    57     1     0     0
SMALL
bcc


@<TRIPOS>ATOM
      1 CBC          0.0000     0.0000     0.0000 c3         1 9J5       0.267700
      2 OBA          1.4520     0.0000     0.0000 os         1 9J5      -0.418900
      3 CAX          2.0610     0.0000     1.1960 c          1 9J5       0.700100
      4 OBB          1.4070     0.0940     2.2070 o          1 9J5      -0.567000
      5 CAW          3.5620    -0.1180     1.2780 c3         1 9J5      -0.139700
      6 CAY          3.9320    -1.4020     2.0230 c3         1 9J5      -0.020400
      7 CAZ          3.4740    -2.6150     1.2090 c3         1 9J5      -0.005100
      8 CAJ          4.1280     1.0890     2.0280 c3         1 9J5       0.148200
      9 NAI          3.7640     2.3250     1.3280 n2         1 9J5      -0.510900
     10 CAK          5.6330     1.0070     2.0630 cc         1 9J5       0.136800
     11 NAS          6.3990     0.9400     3.1140 nd         1 9J5      -0.294000
     12 NAT          7.6340     0.9270     2.7500 nd         1 9J5      -0.321000
     13 CAU          7.7140     0.9730     1.4460 cc         1 9J5       0.167800
     14 CAV          8.9770     0.9930     0.6240 c3         1 9J5       0.006600
     15 NAL          6.4400     0.9990     0.9720 na         1 9J5       0.277200
     16 CAM          6.0210     0.9800    -0.3580 ca         1 9J5      -0.111200
     17 CAO          6.7650     0.2450    -1.2730 ca         1 9J5      -0.169000
     18 CAP          6.3700     0.1670    -2.5980 ca         1 9J5       0.186100
     19 OBD          7.1040    -0.5520    -3.4860 os         1 9J5      -0.299900
     20 CBE          6.6360    -0.5870    -4.8360 c3         1 9J5       0.244700
     21 CAQ          5.2200     0.8280    -3.0170 ca         1 9J5      -0.206000
     22 CAR          4.4840     1.5690    -2.1250 ca         1 9J5      -0.013000
     23 CAN          4.8820     1.6710    -0.7820 ca         1 9J5      -0.202900
     24 CAH          4.1000     2.5390     0.1030 ce         1 9J5       0.503500
     25 CAE          3.6380     3.8180    -0.4830 ca         1 9J5      -0.155900
     26 CAD          2.4920     4.4410     0.0090 ca         1 9J5      -0.063500
     27 CAC          2.0670     5.6320    -0.5400 ca         1 9J5      -0.107500
     28 CAB          2.7760     6.2110    -1.5800 ca         1 9J5      -0.022600
     29 ClA          2.2360     7.7110    -2.2660 cl         1 9J5      -0.023400
     30 CAG          3.9160     5.5970    -2.0730 ca         1 9J5      -0.107500
     31 CAF          4.3510     4.4070    -1.5270 ca         1 9J5      -0.063500
     32 HBC         -0.3610    -0.8920     0.4970 h1         1 9J5       0.002367
     33 HBE         -0.3610     0.0160    -1.0210 h1         1 9J5       0.002367
     34 HBD         -0.3610     0.8760     0.5250 h1         1 9J5       0.002367
     35 HAY          3.9760    -0.1490     0.2770 hc         1 9J5       0.055700
     36 HAZ          3.4450    -1.4120     2.9910 hc         1 9J5       0.035700
     37 HA0          5.0060    -1.4440     2.1590 hc         1 9J5       0.035700
     38 HA2          4.1190    -3.4580     1.4220 hc         1 9J5       0.006367
     39 HA1          3.5240    -2.3800     0.1520 hc         1 9J5       0.006367
     40 HA3          2.4540    -2.8640     1.4760 hc         1 9J5       0.006367
     41 HAJ          3.7410     1.1140     3.0390 h1         1 9J5       0.088700
     42 HAX          9.8070     1.3080     1.2450 hc         1 9J5       0.019033
     43 HAV          9.1720    -0.0000     0.2380 hc         1 9J5       0.019033
     44 HAW          8.8600     1.6850    -0.2010 hc         1 9J5       0.019033
     45 HAO          7.6560    -0.2780    -0.9460 ha         1 9J5       0.145000
     46 HBF          6.6050     0.4200    -5.2340 h1         1 9J5       0.002367
     47 HBG          5.6420    -1.0170    -4.8630 h1         1 9J5       0.002367
     48 HBH          7.3070    -1.1910    -5.4350 h1         1 9J5       0.002367
     49 HAQ          4.9100     0.7680    -4.0540 ha         1 9J5       0.130000
     50 HAR          3.5900     2.0800    -2.4610 ha         1 9J5       0.126000
     51 HAD          1.9360     3.9900     0.8220 ha         1 9J5       0.121500
     52 HAC          1.1760     6.1170    -0.1580 ha         1 9J5       0.117500
     53 HAG          4.4680     6.0540    -2.8850 ha         1 9J5       0.117500
     54 HAF          5.2430     3.9280    -1.9140 ha         1 9J5       0.121500
@<TRIPOS>BOND
     1     1     2 1   
     2     1    32 1   
     3     1    33 1   
     4     1    34 1   
     5     2     3 1   
     6     3     4 2   
     7     3     5 1   
     8     5     6 1   
     9     5     8 1   
    10     5    35 1   
    11     6     7 1   
    12     6    36 1   
    13     6    37 1   
    14     7    38 1   
    15     7    39 1   
    16     7    40 1   
    17     8     9 1   
    18     8    10 1   
    19     8    41 1   
    20     9    24 2   
    21    10    11 2   
    22    10    15 1   
    23    11    12 1   
    24    12    13 2   
    25    13    14 1   
    26    13    15 1   
    27    14    42 1   
    28    14    43 1   
    29    14    44 1   
    30    15    16 1   
    31    16    17 ar  
    32    16    23 ar  
    33    17    18 ar  
    34    17    45 1   
    35    18    19 1   
    36    18    21 ar  
    37    19    20 1   
    38    20    46 1   
    39    20    47 1   
    40    20    48 1   
    41    21    22 ar  
    42    21    49 1   
    43    22    23 ar  
    44    22    50 1   
    45    23    24 1   
    46    24    25 1   
    47    25    26 ar  
    48    25    31 ar  
    49    26    27 ar  
    50    26    51 1   
    51    27    28 ar  
    52    27    52 1   
    53    28    29 1   
    54    28    30 ar  
    55    30    31 ar  
    56    30    53 1   
    57    31    54 1   
@<TRIPOS>SUBSTRUCTURE
     1 9J5         1 TEMP              0 ****  ****    0 ROOT
