@<TRIPOS>MOLECULE
molecule
   54    57     1     0     0
SMALL
bcc


@<TRIPOS>ATOM
      1 CBC          0.0000     0.0000     0.0000 c3         1 9J5       0.138700
      2 OBA          1.4520     0.0000     0.0000 os         1 9J5      -0.430900
      3 CAX          2.0610     0.0000     1.1960 c          1 9J5       0.641100
      4 OBB          1.4070     0.0940     2.2070 o          1 9J5      -0.536000
      5 CAW          3.5620    -0.1180     1.2780 c3         1 9J5      -0.138700
      6 CAY          3.9320    -1.4020     2.0230 c3         1 9J5      -0.074400
      7 CAZ          3.4740    -2.6150     1.2090 c3         1 9J5      -0.099100
      8 CAJ          4.1280     1.0890     2.0280 c3         1 9J5       0.130200
      9 NAI          3.7640     2.3250     1.3280 n2         1 9J5      -0.584900
     10 CAK          5.6330     1.0070     2.0630 cc         1 9J5       0.348800
     11 NAS          6.3990     0.9400     3.1140 nc         1 9J5      -0.328000
     12 NAT          7.6340     0.9270     2.7500 nc         1 9J5      -0.345000
     13 CAU          7.7140     0.9730     1.4460 cd         1 9J5       0.373800
     14 CAV          8.9770     0.9930     0.6240 c3         1 9J5      -0.108400
     15 NAL          6.4400     0.9990     0.9720 na         1 9J5      -0.247800
     16 CAM          6.0210     0.9800    -0.3580 ca         1 9J5       0.060800
     17 CAO          6.7650     0.2450    -1.2730 ca         1 9J5      -0.188000
     18 CAP          6.3700     0.1670    -2.5980 ca         1 9J5       0.176100
     19 OBD          7.1040    -0.5520    -3.4860 os         1 9J5      -0.319900
     20 CBE          6.6360    -0.5870    -4.8360 c3         1 9J5       0.126700
     21 CAQ          5.2200     0.8280    -3.0170 ca         1 9J5      -0.229000
     22 CAR          4.4840     1.5690    -2.1250 ca         1 9J5      -0.041000
     23 CAN          4.8820     1.6710    -0.7820 ca         1 9J5      -0.230900
     24 CAH          4.1000     2.5390     0.1030 ce         1 9J5       0.540500
     25 CAE          3.6380     3.8180    -0.4830 ca         1 9J5      -0.143900
     26 CAD          2.4920     4.4410     0.0090 ca         1 9J5      -0.086500
     27 CAC          2.0670     5.6320    -0.5400 ca         1 9J5      -0.132000
     28 CAB          2.7760     6.2110    -1.5800 ca         1 9J5       0.042400
     29 ClA          2.2360     7.7110    -2.2660 cl         1 9J5      -0.104400
     30 CAG          3.9160     5.5970    -2.0730 ca         1 9J5      -0.132000
     31 CAF          4.3510     4.4070    -1.5270 ca         1 9J5      -0.086500
     32 HBC         -0.3610    -0.8920     0.4970 h1         1 9J5       0.049700
     33 HBE         -0.3610     0.0160    -1.0210 h1         1 9J5       0.049700
     34 HBD         -0.3610     0.8760     0.5250 h1         1 9J5       0.049700
     35 HAY          3.9760    -0.1490     0.2770 hc         1 9J5       0.080700
     36 HAZ          3.4450    -1.4120     2.9910 hc         1 9J5       0.066200
     37 HA0          5.0060    -1.4440     2.1590 hc         1 9J5       0.066200
     38 HA2          4.1190    -3.4580     1.4220 hc         1 9J5       0.039367
     39 HA1          3.5240    -2.3800     0.1520 hc         1 9J5       0.039367
     40 HA3          2.4540    -2.8640     1.4760 hc         1 9J5       0.039367
     41 HAJ          3.7410     1.1140     3.0390 h1         1 9J5       0.134700
     42 HAX          9.8070     1.3080     1.2450 hc         1 9J5       0.062033
     43 HAV          9.1720    -0.0000     0.2380 hc         1 9J5       0.062033
     44 HAW          8.8600     1.6850    -0.2010 hc         1 9J5       0.062033
     45 HAO          7.6560    -0.2780    -0.9460 ha         1 9J5       0.163000
     46 HBF          6.6050     0.4200    -5.2340 h1         1 9J5       0.047367
     47 HBG          5.6420    -1.0170    -4.8630 h1         1 9J5       0.047367
     48 HBH          7.3070    -1.1910    -5.4350 h1         1 9J5       0.047367
     49 HAQ          4.9100     0.7680    -4.0540 ha         1 9J5       0.147000
     50 HAR          3.5900     2.0800    -2.4610 ha         1 9J5       0.156000
     51 HAD          1.9360     3.9900     0.8220 ha         1 9J5       0.152500
     52 HAC          1.1760     6.1170    -0.1580 ha         1 9J5       0.148000
     53 HAG          4.4680     6.0540    -2.8850 ha         1 9J5       0.148000
     54 HAF          5.2430     3.9280    -1.9140 ha         1 9J5       0.152500
@<TRIPOS>BOND
     1    14    13 1
     2     7     6 1
     3    19    20 1
     4    19    18 1
     5    12    13 2
     6    12    11 1
     7    13    15 1
     8    17    18 ar
     9    17    16 ar
    10     6     5 1
    11    11    10 2
    12    18    21 ar
    13    15    10 1
    14    15    16 1
    15    10     8 1
    16    16    23 ar
    17    21    22 ar
    18     5     8 1
    19     5     3 1
    20     8     9 1
    21    23    22 ar
    22    23    24 1
    23     3     2 1
    24     3     4 2
    25     2     1 1
    26     9    24 2
    27    24    25 1
    28    25    26 ar
    29    25    31 ar
    30    26    27 ar
    31    31    30 ar
    32    27    28 ar
    33    30    28 ar
    34    28    29 1
    35     1    32 1
    36     1    33 1
    37     1    34 1
    38     5    35 1
    39     6    36 1
    40     6    37 1
    41     7    38 1
    42     7    39 1
    43     7    40 1
    44     8    41 1
    45    14    42 1
    46    14    43 1
    47    14    44 1
    48    17    45 1
    49    20    46 1
    50    20    47 1
    51    20    48 1
    52    21    49 1
    53    22    50 1
    54    26    51 1
    55    27    52 1
    56    30    53 1
    57    31    54 1
@<TRIPOS>SUBSTRUCTURE
     1 9J5         1 TEMP              0 ****  ****    0 ROOT
