@<TRIPOS>MOLECULE
molecule
   25    24     1     0     0
SMALL
bcc


@<TRIPOS>ATOM
      1 OAA          0.0000     0.0000     0.0000 o          1 9J6      -0.856800
      2 CAC          1.2080     0.0000     0.0000 c          1 9J6       0.891600
      3 OAB          1.8790     0.0000     1.1620 o          1 9J6      -0.856800
      4 CAD          1.9610    -0.0070    -1.3050 c3         1 9J6      -0.181400
      5 CAE          0.9670    -0.0130    -2.4690 c3         1 9J6      -0.065400
      6 CAF          1.7320    -0.0200    -3.7930 c3         1 9J6      -0.079400
      7 CAG          0.7370    -0.0250    -4.9570 c3         1 9J6      -0.124400
      8 CAH          1.4910    -0.0320    -6.2610 c          1 9J6       0.625100
      9 OAI          2.6990    -0.0320    -6.2610 o          1 9J6      -0.556000
     10 OAJ          0.8200    -0.0380    -7.4230 os         1 9J6      -0.440900
     11 CAK          1.6100    -0.0440    -8.6420 c3         1 9J6       0.145400
     12 CAL          0.6780    -0.0500    -9.8550 c3         1 9J6      -0.096100
     13 H2           2.5840     0.8770    -1.3670 hc         1 9J6       0.029700
     14 H3           2.5840    -0.8920    -1.3580 hc         1 9J6       0.029700
     15 H4           0.3450     0.8720    -2.4160 hc         1 9J6       0.044700
     16 H5           0.3440    -0.8970    -2.4070 hc         1 9J6       0.044700
     17 H6           2.3540    -0.9040    -3.8460 hc         1 9J6       0.046700
     18 H7           2.3550     0.8640    -3.8550 hc         1 9J6       0.046700
     19 H8           0.1140    -0.9090    -4.8950 hc         1 9J6       0.069700
     20 H9           0.1150     0.8600    -4.9040 hc         1 9J6       0.069700
     21 H10          2.2350    -0.9280    -8.6620 h1         1 9J6       0.044700
     22 H11          2.2340     0.8410    -8.6710 h1         1 9J6       0.044700
     23 H12          0.0520     0.8350    -9.8340 hc         1 9J6       0.042033
     24 H13          0.0530    -0.9340    -9.8260 hc         1 9J6       0.042033
     25 H14          1.2680    -0.0540   -10.7630 hc         1 9J6       0.042033
@<TRIPOS>BOND
     1    11    10 1
     2    11    12 1
     3    10     8 1
     4     8     7 1
     5     8     9 2
     6     7     6 1
     7     6     5 1
     8     5     4 1
     9     1     2 1
    10     4     2 1
    11     2     3 1
    12     4    13 1
    13     4    14 1
    14     5    15 1
    15     5    16 1
    16     6    17 1
    17     6    18 1
    18     7    19 1
    19     7    20 1
    20    11    21 1
    21    11    22 1
    22    12    23 1
    23    12    24 1
    24    12    25 1
@<TRIPOS>SUBSTRUCTURE
     1 9J6         1 TEMP              0 ****  ****    0 ROOT
