@<TRIPOS>MOLECULE
molecule
   50    52     1     0     0
SMALL
bcc


@<TRIPOS>ATOM
      1 C1           0.0000     0.0000     0.0000 ca         1 9J7      -0.113300
      2 C2           1.3840     0.0000     0.0000 ca         1 9J7       0.118900
      3 C3          -0.6920     0.0000     1.1970 ca         1 9J7      -0.097000
      4 C4          -0.7530     0.0060    -1.3060 c3         1 9J7      -0.167300
      5 C5           2.0760     0.0000     1.2010 ca         1 9J7       0.098900
      6 C6           1.3810     0.0000     2.3980 ca         1 9J7      -0.085300
      7 C7          -0.0020     0.0010     2.3950 ca         1 9J7      -0.117000
      8 C8          -7.9440     1.0530    -1.3220 c3         1 9J7      -0.104400
      9 C9          -7.9430     0.3600    -2.6860 c3         1 9J7       0.099000
     10 C10         -3.0950    -0.9400    -3.3460 ca         1 9J7       0.082600
     11 C11         -4.2200    -1.6250    -2.9040 ca         1 9J7      -0.079000
     12 C12         -3.2210     0.3520    -3.8390 ca         1 9J7      -0.103000
     13 C13         -4.4610     0.9550    -3.8890 ca         1 9J7      -0.129300
     14 C14         -5.5850     0.2690    -3.4470 ca         1 9J7       0.085600
     15 C15         -4.6000     2.3570    -4.4230 c3         1 9J7      -0.030100
     16 C16         -5.4610    -1.0230    -2.9540 ca         1 9J7      -0.167000
     17 C17          2.1310     0.0000     3.7050 c3         1 9J7      -0.046800
     18 C18         -5.9390     2.4980    -5.1500 c3         1 9J7      -0.153400
     19 C19         -7.0480     1.9520    -4.2910 c          1 9J7       0.702500
     20 C20         -9.0920     0.5050    -0.4720 c3         1 9J7      -0.091100
     21 F1           3.4270    -0.0010     1.2040 f          1 9J7      -0.122900
     22 F2           2.0600    -0.0010    -1.1700 f          1 9J7      -0.117900
     23 N1          -6.8430     0.8840    -3.4990 n          1 9J7      -0.375000
     24 N2          -1.8380    -1.5500    -3.2890 nu         1 9J7      -0.779500
     25 O1           0.1670    -2.3460    -2.1650 o          1 9J7      -0.618300
     26 O2          -8.1390     2.4810    -4.3140 o          1 9J7      -0.625500
     27 O3          -2.0090    -2.3260    -0.9900 o          1 9J7      -0.618300
     28 S           -1.0560    -1.7010    -1.8370 s6         1 9J7       1.330900
     29 H1          -1.7750     0.0010     1.1960 ha         1 9J7       0.150000
     30 H2          -1.7000     0.5160    -1.1740 h1         1 9J7       0.111200
     31 H3          -0.1670     0.5200    -2.0580 h1         1 9J7       0.111200
     32 H4          -0.5450     0.0010     3.3320 ha         1 9J7       0.147000
     33 H5          -8.0730     2.1200    -1.4590 hc         1 9J7       0.052200
     34 H6          -7.0020     0.8640    -0.8210 hc         1 9J7       0.052200
     35 H7          -7.8140    -0.7070    -2.5490 h1         1 9J7       0.066200
     36 H8          -8.8840     0.5490    -3.1880 h1         1 9J7       0.066200
     37 H9          -4.1230    -2.6330    -2.5190 ha         1 9J7       0.161000
     38 H10         -2.3440     0.8880    -4.1840 ha         1 9J7       0.139000
     39 H11         -4.5810     3.0500    -3.5910 hc         1 9J7       0.061200
     40 H12         -3.7990     2.5420    -5.1280 hc         1 9J7       0.061200
     41 H13         -6.3380    -1.5580    -2.6090 ha         1 9J7       0.148000
     42 H14          2.7540    -0.8840     3.7640 hc         1 9J7       0.053700
     43 H15          1.4250     0.0000     4.5270 hc         1 9J7       0.053700
     44 H16          2.7540     0.8850     3.7640 hc         1 9J7       0.053700
     45 H17         -6.1260     3.5450    -5.3550 hc         1 9J7       0.079700
     46 H18         -5.9010     1.9450    -6.0810 hc         1 9J7       0.079700
     47 H19         -8.9340    -0.5510    -0.2890 hc         1 9J7       0.036700
     48 H20         -9.1270     1.0340     0.4730 hc         1 9J7       0.036700
     49 H21        -10.0290     0.6440    -0.9980 hc         1 9J7       0.036700
     50 H22         -1.4210    -1.9150    -4.1220 hn         1 9J7       0.466800
@<TRIPOS>BOND
     1    27    28 2
     2     3     7 ar
     3     3     1 ar
     4     4    28 1
     5     4     1 1
     6    28    25 2
     7    28    24 1
     8     7     6 ar
     9     1     2 ar
    10     6    17 1
    11     6     5 ar
    12     2     5 ar
    13     2    22 1
    14    24    10 1
    15     5    21 1
    16    10    12 ar
    17    10    11 ar
    18    12    13 ar
    19    11    16 ar
    20    13    15 1
    21    13    14 ar
    22    15    18 1
    23    16    14 ar
    24    14    23 1
    25    18    19 1
    26    19    23 1
    27    19    26 2
    28    23     9 1
    29     8     9 1
    30     8    20 1
    31     3    29 1
    32     4    30 1
    33     4    31 1
    34     7    32 1
    35     8    33 1
    36     8    34 1
    37     9    35 1
    38     9    36 1
    39    11    37 1
    40    12    38 1
    41    15    39 1
    42    15    40 1
    43    16    41 1
    44    17    42 1
    45    17    43 1
    46    17    44 1
    47    18    45 1
    48    18    46 1
    49    20    47 1
    50    20    48 1
    51    20    49 1
    52    24    50 1
@<TRIPOS>SUBSTRUCTURE
     1 9J7         1 TEMP              0 ****  ****    0 ROOT
