@<TRIPOS>MOLECULE
9J8
   59    62     1     0     0
SMALL
bcc


@<TRIPOS>ATOM
      1 CBG          0.0000     0.0000     0.0000 c3         1 9J8      -0.008100
      2 CBF          1.5300     0.0000     0.0000 c3         1 9J8       0.050000
      3 NBE          2.0180     0.0000     1.3810 ns         1 9J8      -0.206900
      4 CAZ          3.3390    -0.1010     1.6290 c          1 9J8       0.577100
      5 OBD          4.1310    -0.1040     0.7100 o          1 9J8      -0.627100
      6 CAS          3.8330    -0.2090     3.0490 c3         1 9J8      -0.161700
      7 CBA          4.1050     1.1900     3.6030 c3         1 9J8       0.024800
      8 CBB          2.8050     1.9420     3.7280 c2         1 9J8      -0.174200
      9 CBC          2.4330     2.4200     4.8890 c2         1 9J8      -0.156000
     10 CAJ          5.1260    -1.0290     3.0780 c3         1 9J8       0.150200
     11 NAI          4.8610    -2.3920     2.6040 n2         1 9J8      -0.471900
     12 CAK          5.6370    -1.1260     4.4930 cc         1 9J8       0.130800
     13 NAO          6.7790    -0.7010     4.9540 nd         1 9J8      -0.296000
     14 NAP          6.8790    -0.9990     6.2020 nd         1 9J8      -0.322000
     15 CAQ          5.7980    -1.6180     6.6010 cc         1 9J8       0.156800
     16 CAR          5.5260    -2.1470     7.9860 c3         1 9J8       0.009600
     17 NAL          4.9670    -1.6910     5.5280 na         1 9J8       0.292200
     18 CAM          3.6680    -2.2020     5.4850 ca         1 9J8      -0.204200
     19 CAT          2.8560    -2.0350     6.6020 ca         1 9J8      -0.067000
     20 CAU          1.5540    -2.4910     6.5970 ca         1 9J8      -0.185000
     21 CAV          1.0450    -3.1230     5.4700 ca         1 9J8       0.162100
     22 OAX         -0.2420    -3.5590     5.4590 os         1 9J8      -0.300900
     23 CAY         -1.0130    -3.3340     6.6420 c3         1 9J8       0.243700
     24 CAW          1.8450    -3.3070     4.3600 ca         1 9J8      -0.124000
     25 CAN          3.1750    -2.8630     4.3580 ca         1 9J8      -0.102900
     26 CAH          3.9980    -3.1570     3.1790 ce         1 9J8       0.468500
     27 CAA          3.8150    -4.4970     2.5750 ca         1 9J8      -0.154900
     28 CAB          4.1020    -4.7020     1.2270 ca         1 9J8      -0.064000
     29 CAC          3.9290    -5.9520     0.6690 ca         1 9J8      -0.107500
     30 CAD          3.4710    -7.0020     1.4480 ca         1 9J8      -0.022600
     31 ClA          3.2480    -8.5710     0.7380 cl         1 9J8      -0.025400
     32 CAE          3.1840    -6.8040     2.7870 ca         1 9J8      -0.107500
     33 CAF          3.3590    -5.5590     3.3570 ca         1 9J8      -0.064000
     34 HBI         -0.3610     0.0020    -1.0210 hc         1 9J8       0.008033
     35 HBJ         -0.3610    -0.8850     0.5090 hc         1 9J8       0.008033
     36 HBH         -0.3610     0.8840     0.5120 hc         1 9J8       0.008033
     37 HBG          1.8920     0.8850    -0.5110 h1         1 9J8       0.026700
     38 HBF          1.8920    -0.8850    -0.5110 h1         1 9J8       0.026700
     39 HBK          1.3690     0.0460     2.1410 hn         1 9J8       0.178500
     40 HAU          3.0820    -0.6990     3.6560 hc         1 9J8       0.045700
     41 HBB          4.5700     1.1090     4.5770 hc         1 9J8       0.038700
     42 HBA          4.7660     1.7230     2.9300 hc         1 9J8       0.038700
     43 HBC          2.1770     2.0870     2.8570 ha         1 9J8       0.105000
     44 HBE          3.0600     2.2750     5.7610 ha         1 9J8       0.085500
     45 HBD          1.4980     2.9600     4.9790 ha         1 9J8       0.085500
     46 HAJ          5.8760    -0.5630     2.4500 h1         1 9J8       0.094700
     47 HAS          6.4620    -2.2630     8.5180 hc         1 9J8       0.017033
     48 HAT          4.8900    -1.4520     8.5200 hc         1 9J8       0.017033
     49 HAR          5.0300    -3.1080     7.9140 hc         1 9J8       0.017033
     50 HAV          3.2490    -1.5430     7.4830 ha         1 9J8       0.129000
     51 HAW          0.9430    -2.3920     7.4860 ha         1 9J8       0.130000
     52 HA0         -2.0160    -3.7150     6.4960 h1         1 9J8       0.002033
     53 HAZ         -0.5500    -3.8450     7.4770 h1         1 9J8       0.002033
     54 HAY         -1.0560    -2.2710     6.8480 h1         1 9J8       0.002033
     55 HAX          1.4420    -3.8010     3.4830 ha         1 9J8       0.141000
     56 HAB          4.4600    -3.8810     0.6170 ha         1 9J8       0.124500
     57 HAC          4.1520    -6.1130    -0.3790 ha         1 9J8       0.117500
     58 HAE          2.8280    -7.6290     3.3920 ha         1 9J8       0.117500
     59 HAF          3.1340    -5.4040     4.4050 ha         1 9J8       0.124500
@<TRIPOS>BOND
     1     1     2 1   
     2     1    34 1   
     3     1    35 1   
     4     1    36 1   
     5     2     3 1   
     6     2    37 1   
     7     2    38 1   
     8     3     4 1   
     9     3    39 1   
    10     4     5 2   
    11     4     6 1   
    12     6     7 1   
    13     6    10 1   
    14     6    40 1   
    15     7     8 1   
    16     7    41 1   
    17     7    42 1   
    18     8     9 2   
    19     8    43 1   
    20     9    44 1   
    21     9    45 1   
    22    10    11 1   
    23    10    12 1   
    24    10    46 1   
    25    11    26 2   
    26    12    13 2   
    27    12    17 1   
    28    13    14 1   
    29    14    15 2   
    30    15    16 1   
    31    15    17 1   
    32    16    47 1   
    33    16    48 1   
    34    16    49 1   
    35    17    18 1   
    36    18    19 ar  
    37    18    25 ar  
    38    19    20 ar  
    39    19    50 1   
    40    20    21 ar  
    41    20    51 1   
    42    21    22 1   
    43    21    24 ar  
    44    22    23 1   
    45    23    52 1   
    46    23    53 1   
    47    23    54 1   
    48    24    25 ar  
    49    24    55 1   
    50    25    26 1   
    51    26    27 1   
    52    27    28 ar  
    53    27    33 ar  
    54    28    29 ar  
    55    28    56 1   
    56    29    30 ar  
    57    29    57 1   
    58    30    31 1   
    59    30    32 ar  
    60    32    33 ar  
    61    32    58 1   
    62    33    59 1   
@<TRIPOS>SUBSTRUCTURE
     1 9J8         1 TEMP              0 ****  ****    0 ROOT
