@<TRIPOS>MOLECULE
molecule
   59    62     1     0     0
SMALL
bcc


@<TRIPOS>ATOM
      1 CBG          0.0000     0.0000     0.0000 c3         1 9J8      -0.113100
      2 CBF          1.5300     0.0000     0.0000 c3         1 9J8       0.109000
      3 NBE          2.0180     0.0000     1.3810 ns         1 9J8      -0.587900
      4 CAZ          3.3390    -0.1010     1.6290 c          1 9J8       0.664100
      5 OBD          4.1310    -0.1040     0.7100 o          1 9J8      -0.594100
      6 CAS          3.8330    -0.2090     3.0490 c3         1 9J8      -0.166700
      7 CBA          4.1050     1.1900     3.6030 c3         1 9J8      -0.038200
      8 CBB          2.8050     1.9420     3.7280 c2         1 9J8      -0.186200
      9 CBC          2.4330     2.4200     4.8890 c2         1 9J8      -0.215000
     10 CAJ          5.1260    -1.0290     3.0780 c3         1 9J8       0.133200
     11 NAI          4.8610    -2.3920     2.6040 n2         1 9J8      -0.554900
     12 CAK          5.6370    -1.1260     4.4930 cc         1 9J8       0.344800
     13 NAO          6.7790    -0.7010     4.9540 nd         1 9J8      -0.330000
     14 NAP          6.8790    -0.9990     6.2020 nd         1 9J8      -0.346000
     15 CAQ          5.7980    -1.6180     6.6010 cc         1 9J8       0.364800
     16 CAR          5.5260    -2.1470     7.9860 c3         1 9J8      -0.106400
     17 NAL          4.9670    -1.6910     5.5280 na         1 9J8      -0.239800
     18 CAM          3.6680    -2.2020     5.4850 ca         1 9J8      -0.020200
     19 CAT          2.8560    -2.0350     6.6020 ca         1 9J8      -0.105000
     20 CAU          1.5540    -2.4910     6.5970 ca         1 9J8      -0.194000
     21 CAV          1.0450    -3.1230     5.4700 ca         1 9J8       0.138100
     22 OAX         -0.2420    -3.5590     5.4590 os         1 9J8      -0.321900
     23 CAY         -1.0130    -3.3340     6.6420 c3         1 9J8       0.126700
     24 CAW          1.8450    -3.3070     4.3600 ca         1 9J8      -0.130000
     25 CAN          3.1750    -2.8630     4.3580 ca         1 9J8      -0.144900
     26 CAH          3.9980    -3.1570     3.1790 ce         1 9J8       0.517500
     27 CAA          3.8150    -4.4970     2.5750 ca         1 9J8      -0.145900
     28 CAB          4.1020    -4.7020     1.2270 ca         1 9J8      -0.085500
     29 CAC          3.9290    -5.9520     0.6690 ca         1 9J8      -0.132000
     30 CAD          3.4710    -7.0020     1.4480 ca         1 9J8       0.043400
     31 ClA          3.2480    -8.5710     0.7380 cl         1 9J8      -0.106400
     32 CAE          3.1840    -6.8040     2.7870 ca         1 9J8      -0.132000
     33 CAF          3.3590    -5.5590     3.3570 ca         1 9J8      -0.085500
     34 HBI         -0.3610     0.8840     0.5120 hc         1 9J8       0.042367
     35 HBJ         -0.3610     0.0020    -1.0210 hc         1 9J8       0.042367
     36 HBH         -0.3610    -0.8850     0.5090 hc         1 9J8       0.042367
     37 HBG          1.8920     0.8850    -0.5110 h1         1 9J8       0.054200
     38 HBF          1.8920    -0.8850    -0.5110 h1         1 9J8       0.054200
     39 HBK          1.3690     0.0470     2.1410 hn         1 9J8       0.314500
     40 HAU          3.0820    -0.6990     3.6560 hc         1 9J8       0.067700
     41 HBB          4.5700     1.1090     4.5770 hc         1 9J8       0.069700
     42 HBA          4.7660     1.7230     2.9300 hc         1 9J8       0.069700
     43 HBC          2.1770     2.0870     2.8570 ha         1 9J8       0.127000
     44 HBE          1.4980     2.9600     4.9790 ha         1 9J8       0.114000
     45 HBD          3.0600     2.2750     5.7610 ha         1 9J8       0.114000
     46 HAJ          5.8760    -0.5630     2.4500 h1         1 9J8       0.139700
     47 HAS          6.4620    -2.2630     8.5190 hc         1 9J8       0.059367
     48 HAT          5.0300    -3.1080     7.9140 hc         1 9J8       0.059367
     49 HAR          4.8900    -1.4520     8.5200 hc         1 9J8       0.059367
     50 HAV          3.2490    -1.5430     7.4830 ha         1 9J8       0.151000
     51 HAW          0.9430    -2.3930     7.4860 ha         1 9J8       0.148000
     52 HA0         -0.5500    -3.8450     7.4770 h1         1 9J8       0.046033
     53 HAZ         -1.0560    -2.2710     6.8480 h1         1 9J8       0.046033
     54 HAY         -2.0160    -3.7140     6.4960 h1         1 9J8       0.046033
     55 HAX          1.4420    -3.8010     3.4830 ha         1 9J8       0.167000
     56 HAB          4.4600    -3.8810     0.6170 ha         1 9J8       0.155000
     57 HAC          4.1520    -6.1130    -0.3790 ha         1 9J8       0.148000
     58 HAE          2.8280    -7.6290     3.3920 ha         1 9J8       0.148000
     59 HAF          3.1340    -5.4040     4.4050 ha         1 9J8       0.155000
@<TRIPOS>BOND
     1    31    30 1
     2    30    32 ar
     3    30    29 ar
     4    32    33 ar
     5    29    28 ar
     6    33    27 ar
     7    28    27 ar
     8    27    26 1
     9     5     4 2
    10     1     2 1
    11     3     4 1
    12     3     2 1
    13    26    11 2
    14    26    25 1
    15    11    10 1
    16     4     6 1
    17    24    25 ar
    18    24    21 ar
    19    22    21 1
    20    22    23 1
    21    25    18 ar
    22     6    10 1
    23     6     7 1
    24    10    12 1
    25    21    20 ar
    26    12    17 1
    27    12    13 2
    28    18    17 1
    29    18    19 ar
    30     7     8 1
    31    20    19 ar
    32    17    15 1
    33    13    14 1
    34     8     9 2
    35    15    14 2
    36    15    16 1
    37     1    34 1
    38     1    35 1
    39     1    36 1
    40     2    37 1
    41     2    38 1
    42     3    39 1
    43     6    40 1
    44     7    41 1
    45     7    42 1
    46     8    43 1
    47     9    44 1
    48     9    45 1
    49    10    46 1
    50    16    47 1
    51    16    48 1
    52    16    49 1
    53    19    50 1
    54    20    51 1
    55    23    52 1
    56    23    53 1
    57    23    54 1
    58    24    55 1
    59    28    56 1
    60    29    57 1
    61    32    58 1
    62    33    59 1
@<TRIPOS>SUBSTRUCTURE
     1 9J8         1 TEMP              0 ****  ****    0 ROOT
