@<TRIPOS>MOLECULE
molecule
   51    50     1     0     0
SMALL
bcc


@<TRIPOS>ATOM
      1 CAA          0.0000     0.0000     0.0000 c3         1 9JB      -0.115433
      2 CAB          5.6070    -1.3200    -6.4330 c3         1 9JB      -0.115433
      3 CAC          4.0450    -2.3170    -1.4860 c3         1 9JB       0.148400
      4 OAD          3.4640    -1.1910    -0.8240 os         1 9JB      -0.425933
      5 CAE          2.0400    -1.2490    -0.7220 c3         1 9JB       0.144400
      6 CAF          1.5300     0.0000     0.0000 c3         1 9JB       0.147100
      7 OAG          2.0060     0.0000     1.3470 oh         1 9JB      -0.596133
      8 OAH          3.6470    -0.0850    -5.7420 oh         1 9JB      -0.596133
      9 CAI          5.0710    -0.0160    -5.8360 c3         1 9JB       0.147100
     10 CAJ          5.6650     0.1890    -4.4420 c3         1 9JB       0.144400
     11 OAK          5.3960    -0.9600    -3.6360 os         1 9JB      -0.425933
     12 CAL          5.9100    -0.8710    -2.3060 c3         1 9JB       0.148400
     13 CAM          5.5650    -2.1490    -1.5390 c3         1 9JB      -0.043000
     14 CAN          6.1170    -2.0540    -0.1140 c3         1 9JB       0.151400
     15 OAO          5.7940    -3.2470     0.6030 oh         1 9JB      -0.613800
     16 OAS         10.2730    -4.0040    -1.5890 oh         1 9JB      -0.596133
     17 CAT          9.7930    -4.0020    -2.9360 c3         1 9JB       0.147100
     18 CAU          8.2880    -4.2740    -2.9410 c3         1 9JB       0.144400
     19 OAV          7.6060    -3.1980    -2.2960 os         1 9JB      -0.425933
     20 CAW          6.1870    -3.3540    -2.2470 c3         1 9JB       0.148400
     21 CAY         10.5120    -5.0920    -3.7340 c3         1 9JB      -0.115433
     22 HAAA        -0.3610     0.9070     0.4700 hc         1 9JB       0.043144
     23 HAA         -0.3610    -0.0460    -1.0200 hc         1 9JB       0.043144
     24 HAAB        -0.3610    -0.8610     0.5500 hc         1 9JB       0.043144
     25 HABA         6.5940    -1.5210    -6.0350 hc         1 9JB       0.043144
     26 HAB          4.9410    -2.1350    -6.1760 hc         1 9JB       0.043144
     27 HACA         3.8000    -3.2210    -0.9430 h1         1 9JB       0.039533
     28 HAC          3.6540    -2.3840    -2.4940 h1         1 9JB       0.039533
     29 HAE          1.6080    -1.2940    -1.7150 h1         1 9JB       0.032200
     30 HAEA         1.7540    -2.1320    -0.1630 h1         1 9JB       0.032200
     31 HAF          1.8910     0.8850    -0.5100 h1         1 9JB       0.036033
     32 HOAG         2.0460     0.8860     1.6660 ho         1 9JB       0.397333
     33 HOAH         3.2620     0.5100    -6.3630 ho         1 9JB       0.397333
     34 HAI          5.3510     0.8140    -6.4740 h1         1 9JB       0.036033
     35 HAJ          5.2190     1.0640    -3.9850 h1         1 9JB       0.032200
     36 HAJA         6.7360     0.3300    -4.5230 h1         1 9JB       0.032200
     37 HAL          5.4700    -0.0180    -1.8050 h1         1 9JB       0.039533
     38 HALA         6.9870    -0.7520    -2.3430 h1         1 9JB       0.039533
     39 HANA         5.6760    -1.2010     0.3870 h1         1 9JB       0.037200
     40 HAN          7.1930    -1.9360    -0.1510 h1         1 9JB       0.037200
     41 HA4          6.1340    -3.1880     1.4800 ho         1 9JB       0.405000
     42 HOAS        11.0530    -3.4770    -1.5320 ho         1 9JB       0.397333
     43 HAT          9.9870    -3.0360    -3.3870 h1         1 9JB       0.036033
     44 HAU          7.9410    -4.3610    -3.9640 h1         1 9JB       0.032200
     45 HAUA         8.0860    -5.1980    -2.4120 h1         1 9JB       0.032200
     46 HAW          5.7950    -3.4220    -3.2550 h1         1 9JB       0.039533
     47 HAWA         5.9420    -4.2580    -1.7020 h1         1 9JB       0.039533
     48 HAYB        10.1150    -5.1220    -4.7420 hc         1 9JB       0.043144
     49 HAY         11.5720    -4.8730    -3.7710 hc         1 9JB       0.043144
     50 HAYA        10.3570    -6.0510    -3.2560 hc         1 9JB       0.043144
     51 HABB         5.6650    -1.2270    -7.5110 hc         1 9JB       0.043144
@<TRIPOS>BOND
     1     1     6 1
     2     7     6 1
     3     6     5 1
     4     5     4 1
     5     4     3 1
     6     3    13 1
     7    14    15 1
     8    14    13 1
     9    20    13 1
    10    20    19 1
    11    13    12 1
    12    19    18 1
    13    18    17 1
    14    12    11 1
    15    11    10 1
    16    16    17 1
    17    17    21 1
    18    10     9 1
    19     9     8 1
    20     9     2 1
    21     1    22 1
    22     1    23 1
    23     1    24 1
    24     2    51 1
    25     2    25 1
    26     2    26 1
    27     3    27 1
    28     3    28 1
    29     5    29 1
    30     5    30 1
    31     6    31 1
    32     7    32 1
    33     8    33 1
    34     9    34 1
    35    10    35 1
    36    10    36 1
    37    12    37 1
    38    12    38 1
    39    14    39 1
    40    14    40 1
    41    15    41 1
    42    16    42 1
    43    17    43 1
    44    18    44 1
    45    18    45 1
    46    20    46 1
    47    20    47 1
    48    21    48 1
    49    21    49 1
    50    21    50 1
@<TRIPOS>SUBSTRUCTURE
     1 9JB         1 TEMP              0 ****  ****    0 ROOT
