@<TRIPOS>MOLECULE
9JD
   79    81     1     0     0
SMALL
bcc


@<TRIPOS>ATOM
      1 C10          0.0000     0.0000     0.0000 ca         1 9JD       0.116900
      2 C12          1.3830     0.0000     0.0000 ca         1 9JD      -0.127000
      3 C13          2.0760     0.0000     1.1960 ca         1 9JD      -0.075000
      4 C14          1.3930     0.0020     2.3980 ca         1 9JD      -0.117000
      5 C15          0.0130     0.0030     2.4110 ca         1 9JD      -0.064300
      6 C16         -0.7300     0.0040     3.7230 c3         1 9JD       0.225100
      7 C18         -0.1600     1.0980     4.6290 c3         1 9JD      -0.065400
      8 C19         -0.3730     2.4650     3.9760 c3         1 9JD      -0.048400
      9 O23          0.9660     5.9070     5.9580 o          1 9JD      -0.658000
     10 O24          0.2270     7.1880     4.3030 os         1 9JD      -0.426900
     11 C01         -5.2850     2.6210    -0.7360 c3         1 9JD       0.007900
     12 C03         -4.2570     1.1830     1.0040 ca         1 9JD      -0.081300
     13 C04         -4.9460     0.0060     1.2340 ca         1 9JD      -0.100000
     14 C05         -4.2560    -1.1730     1.4560 ca         1 9JD      -0.099000
     15 C06         -2.8760    -1.1790     1.4500 ca         1 9JD      -0.116000
     16 C07         -2.1770     0.0040     1.2190 cp         1 9JD       0.000000
     17 C08         -2.8770     1.1870     0.9890 ca         1 9JD      -0.073000
     18 C09         -0.6930     0.0020     1.2100 cp         1 9JD      -0.040000
     19 F11         -0.6770     0.0050    -1.1690 f          1 9JD      -0.120900
     20 O17         -2.1150     0.2570     3.4860 oh         1 9JD      -0.556800
     21 C20          0.1960     3.5580     4.8820 c3         1 9JD       0.064000
     22 C22          0.4150     5.9850     4.8780 c          1 9JD       0.680100
     23 C25          0.7100     8.3480     5.0290 c3         1 9JD       0.287700
     24 C26         -0.5680    -1.3570     4.4030 c3         1 9JD      -0.002700
     25 C28          0.9150    -1.6170     4.6790 c3         1 9JD      -0.226400
     26 C29          1.0760    -2.9640     5.3870 c3         1 9JD       0.019600
     27 C30          0.5500    -4.0800     4.4790 c3         1 9JD       0.031000
     28 N31         -0.8320    -3.7630     4.0920 n          1 9JD      -0.116800
     29 C32         -1.1120    -2.4550     3.4840 c3         1 9JD       0.004000
     30 C33         -1.8220    -4.6550     4.2900 c          1 9JD       0.589100
     31 O34         -2.9580    -4.3800     3.9650 o          1 9JD      -0.666100
     32 C35         -1.5190    -5.9920     4.9150 c3         1 9JD      -0.118400
     33 C36         -2.8090    -6.8070     5.0260 c3         1 9JD       0.267100
     34 O38         -3.7040    -6.1620     5.9320 oh         1 9JD      -0.552800
     35 C39         -2.4820    -8.2100     5.5440 c3         1 9JD      -0.164200
     36 N40         -3.7010    -9.0300     5.5360 nz         1 9JD       0.137400
     37 H1           1.9240    -0.0200    -0.9390 ha         1 9JD       0.124000
     38 H2           3.1600    -0.0080     1.1910 ha         1 9JD       0.111000
     39 H3           1.9420     0.0060     3.3320 ha         1 9JD       0.123000
     40 H4           0.9000     0.9290     4.7770 hc         1 9JD       0.027700
     41 H5          -0.6660     1.0730     5.5870 hc         1 9JD       0.027700
     42 H6          -1.4330     2.6340     3.8280 hc         1 9JD       0.034200
     43 H7           0.1330     2.4900     3.0180 hc         1 9JD       0.034200
     44 H8          -0.4250     4.9260     3.3470 hn         1 9JD       0.178500
     45 H9          -4.3820     2.9550    -1.2320 hc         1 9JD       0.005033
     46 H10         -5.5900     1.6660    -1.1450 hc         1 9JD       0.005033
     47 H11         -6.0720     3.3490    -0.8900 hc         1 9JD       0.005033
     48 H12         -5.9550     2.4320     1.2980 hc         1 9JD       0.015200
     49 H13         -4.4260     3.3020     1.1130 hc         1 9JD       0.015200
     50 H14         -6.0290     0.0070     1.2400 ha         1 9JD       0.106000
     51 H15         -4.8000    -2.0920     1.6360 ha         1 9JD       0.099000
     52 H16         -2.3370    -2.1020     1.6260 ha         1 9JD       0.113000
     53 H17         -2.3390     2.1100     0.8090 ha         1 9JD       0.110000
     54 H18         -2.5640     0.3460     4.3100 ho         1 9JD       0.388000
     55 H19         -0.3100     3.5330     5.8400 h1         1 9JD       0.024700
     56 H20          1.2560     3.3900     5.0300 h1         1 9JD       0.024700
     57 H21          0.4640     9.2470     4.4780 h1         1 9JD       0.001700
     58 H22          1.7840     8.2790     5.1470 h1         1 9JD       0.001700
     59 H23          0.2410     8.3830     6.0050 h1         1 9JD       0.001700
     60 H24         -1.1150    -1.3660     5.3380 hc         1 9JD       0.017700
     61 H25          1.6470    -0.8260     4.7880 hc         1 9JD       0.079700
     62 H26          0.2450    -1.4360     5.5100 hc         1 9JD       0.079700
     63 H27          0.5100    -2.9550     6.3110 hc         1 9JD       0.017700
     64 H28          2.1240    -3.1370     5.6000 hc         1 9JD       0.017700
     65 H29          1.1680    -4.1470     3.5930 h1         1 9JD       0.026200
     66 H30          0.5690    -5.0210     5.0150 h1         1 9JD       0.026200
     67 H31         -2.1820    -2.3320     3.3670 h1         1 9JD       0.071200
     68 H32         -0.6260    -2.3930     2.5180 h1         1 9JD       0.071200
     69 H33         -1.1000    -5.8420     5.9020 hc         1 9JD       0.054200
     70 H34         -0.8070    -6.5260     4.2970 hc         1 9JD       0.054200
     71 H35         -3.2740    -6.8820     4.0510 h1         1 9JD       0.022700
     72 H36         -4.5650    -6.1250     5.5510 ho         1 9JD       0.408000
     73 H37         -2.8020    -8.0680     4.5190 hx         1 9JD       0.087700
     74 H38         -1.5050    -8.6620     5.4230 hx         1 9JD       0.087700
     75 H39         -4.3020    -8.7280     4.7960 hn         1 9JD       0.213800
     76 H40         -4.1740    -8.9320     6.4130 hn         1 9JD       0.213800
     77 H403        -3.4560    -9.9900     5.3960 hn         1 9JD       0.213800
     78 C02         -5.0140     2.4630     0.7620 c3         1 9JD       0.028900
     79 N21         -0.0090     4.8660     4.2560 ns         1 9JD      -0.180900
@<TRIPOS>BOND
     1     1     2 ar  
     2     1    18 ar  
     3     1    19 1   
     4     2     3 ar  
     5     2    37 1   
     6     3     4 ar  
     7     3    38 1   
     8     4     5 ar  
     9     4    39 1   
    10     5     6 1   
    11     5    18 ar  
    12     6     7 1   
    13     6    20 1   
    14     6    24 1   
    15     7     8 1   
    16     7    40 1   
    17     7    41 1   
    18     8    21 1   
    19     8    42 1   
    20     8    43 1   
    21     9    22 2   
    22    10    22 1   
    23    10    23 1   
    24    11    45 1   
    25    11    46 1   
    26    11    47 1   
    27    11    78 1   
    28    12    13 ar  
    29    12    17 ar  
    30    12    78 1   
    31    13    14 ar  
    32    13    50 1   
    33    14    15 ar  
    34    14    51 1   
    35    15    16 ar  
    36    15    52 1   
    37    16    17 ar  
    38    16    18 1   
    39    17    53 1   
    40    20    54 1   
    41    21    55 1   
    42    21    56 1   
    43    21    79 1   
    44    22    79 1   
    45    23    57 1   
    46    23    58 1   
    47    23    59 1   
    48    24    25 1   
    49    24    29 1   
    50    24    60 1   
    51    25    26 1   
    52    25    61 1   
    53    25    62 1   
    54    26    27 1   
    55    26    63 1   
    56    26    64 1   
    57    27    28 1   
    58    27    65 1   
    59    27    66 1   
    60    28    29 1   
    61    28    30 1   
    62    29    67 1   
    63    29    68 1   
    64    30    31 2   
    65    30    32 1   
    66    32    33 1   
    67    32    69 1   
    68    32    70 1   
    69    33    34 1   
    70    33    35 1   
    71    33    71 1   
    72    34    72 1   
    73    35    36 1   
    74    35    73 1   
    75    35    74 1   
    76    36    75 1   
    77    36    76 1   
    78    36    77 1   
    79    44    79 1   
    80    48    78 1   
    81    49    78 1   
@<TRIPOS>SUBSTRUCTURE
     1 9JD         1 TEMP              0 ****  ****    0 ROOT
