@<TRIPOS>MOLECULE
molecule
   79    81     1     0     0
SMALL
bcc


@<TRIPOS>ATOM
      1 C10          0.0000     0.0000     0.0000 ca         1 9JD       0.142900
      2 C12          1.3830     0.0000     0.0000 ca         1 9JD      -0.162000
      3 C13          2.0760     0.0000     1.1960 ca         1 9JD      -0.104000
      4 C14          1.3930     0.0020     2.3980 ca         1 9JD      -0.132000
      5 C15          0.0130     0.0030     2.4110 ca         1 9JD      -0.048300
      6 C16         -0.7300     0.0040     3.7230 c3         1 9JD       0.204100
      7 C18         -0.1600     1.0980     4.6290 c3         1 9JD      -0.106400
      8 C19         -0.3730     2.4650     3.9760 c3         1 9JD      -0.099400
      9 O23          0.9660     5.9070     5.9580 o          1 9JD      -0.611000
     10 O24          0.2270     7.1880     4.3030 os         1 9JD      -0.440900
     11 C01         -5.2850     2.6210    -0.7360 c3         1 9JD      -0.088100
     12 C03         -4.2570     1.1830     1.0040 ca         1 9JD      -0.075300
     13 C04         -4.9460     0.0060     1.2340 ca         1 9JD      -0.126000
     14 C05         -4.2560    -1.1730     1.4560 ca         1 9JD      -0.129000
     15 C06         -2.8760    -1.1790     1.4500 ca         1 9JD      -0.123000
     16 C07         -2.1770     0.0040     1.2190 cp         1 9JD      -0.002000
     17 C08         -2.8770     1.1870     0.9890 ca         1 9JD      -0.096000
     18 C09         -0.6930     0.0020     1.2100 cp         1 9JD      -0.060000
     19 F11         -0.6770     0.0050    -1.1690 f          1 9JD      -0.127900
     20 O17         -2.1150     0.2570     3.4860 oh         1 9JD      -0.569800
     21 C20          0.1960     3.5580     4.8820 c3         1 9JD       0.132000
     22 C22          0.4150     5.9850     4.8780 c          1 9JD       0.749100
     23 C25          0.7100     8.3480     5.0290 c3         1 9JD       0.158700
     24 C26         -0.5680    -1.3570     4.4030 c3         1 9JD      -0.046700
     25 C28          0.9150    -1.6170     4.6790 c3         1 9JD      -0.235400
     26 C29          1.0760    -2.9640     5.3870 c3         1 9JD      -0.059400
     27 C30          0.5500    -4.0800     4.4790 c3         1 9JD       0.095000
     28 N31         -0.8320    -3.7630     4.0920 n          1 9JD      -0.471800
     29 C32         -1.1120    -2.4550     3.4840 c3         1 9JD       0.102000
     30 C33         -1.8220    -4.6550     4.2900 c          1 9JD       0.669100
     31 O34         -2.9580    -4.3800     3.9650 o          1 9JD      -0.620100
     32 C35         -1.5190    -5.9920     4.9150 c3         1 9JD      -0.164400
     33 C36         -2.8090    -6.8070     5.0260 c3         1 9JD       0.201100
     34 O38         -3.7040    -6.1620     5.9320 oh         1 9JD      -0.564800
     35 C39         -2.4820    -8.2100     5.5440 c3         1 9JD      -0.014200
     36 N40         -3.7010    -9.0300     5.5360 nz         1 9JD      -0.793600
     37 H1           1.9240    -0.0200    -0.9390 ha         1 9JD       0.152000
     38 H2           3.1600    -0.0080     1.1910 ha         1 9JD       0.142000
     39 H3           1.9420     0.0060     3.3320 ha         1 9JD       0.140000
     40 H4           0.9000     0.9290     4.7770 hc         1 9JD       0.051200
     41 H5          -0.6660     1.0730     5.5870 hc         1 9JD       0.051200
     42 H6          -1.4330     2.6340     3.8280 hc         1 9JD       0.062700
     43 H7           0.1330     2.4900     3.0180 hc         1 9JD       0.062700
     44 H8          -0.4250     4.9260     3.3470 hn         1 9JD       0.325500
     45 H9          -4.3820     2.9550    -1.2320 hc         1 9JD       0.038367
     46 H10         -5.5900     1.6660    -1.1450 hc         1 9JD       0.038367
     47 H11         -6.0720     3.3490    -0.8900 hc         1 9JD       0.038367
     48 H12         -5.9550     2.4320     1.2980 hc         1 9JD       0.047200
     49 H13         -4.4260     3.3020     1.1130 hc         1 9JD       0.047200
     50 H14         -6.0290     0.0070     1.2400 ha         1 9JD       0.129000
     51 H15         -4.8000    -2.0920     1.6360 ha         1 9JD       0.124000
     52 H16         -2.3370    -2.1020     1.6260 ha         1 9JD       0.126000
     53 H17         -2.3390     2.1100     0.8090 ha         1 9JD       0.134000
     54 H18         -2.5640     0.3460     4.3100 ho         1 9JD       0.399000
     55 H19         -0.3100     3.5330     5.8400 h1         1 9JD       0.051700
     56 H20          1.2560     3.3900     5.0300 h1         1 9JD       0.051700
     57 H21          0.4640     9.2470     4.4780 h1         1 9JD       0.051367
     58 H22          1.7840     8.2790     5.1470 h1         1 9JD       0.051367
     59 H23          0.2410     8.3830     6.0050 h1         1 9JD       0.051367
     60 H24         -1.1150    -1.3660     5.3380 hc         1 9JD       0.036700
     61 H25          1.6470    -0.8260     4.7880 hc         1 9JD       0.097200
     62 H26          0.2450    -1.4360     5.5100 hc         1 9JD       0.097200
     63 H27          0.5100    -2.9550     6.3110 hc         1 9JD       0.049200
     64 H28          2.1240    -3.1370     5.6000 hc         1 9JD       0.049200
     65 H29          1.1680    -4.1470     3.5930 h1         1 9JD       0.050200
     66 H30          0.5690    -5.0210     5.0150 h1         1 9JD       0.050200
     67 H31         -2.1820    -2.3320     3.3670 h1         1 9JD       0.089700
     68 H32         -0.6260    -2.3930     2.5180 h1         1 9JD       0.089700
     69 H33         -1.1000    -5.8420     5.9020 hc         1 9JD       0.088700
     70 H34         -0.8070    -6.5260     4.2970 hc         1 9JD       0.088700
     71 H35         -3.2740    -6.8820     4.0510 h1         1 9JD       0.052700
     72 H36         -4.5650    -6.1250     5.5510 ho         1 9JD       0.422000
     73 H37         -2.8020    -8.0680     4.5190 hx         1 9JD       0.121200
     74 H38         -1.5050    -8.6620     5.4230 hx         1 9JD       0.121200
     75 H39         -4.3020    -8.7280     4.7960 hn         1 9JD       0.454467
     76 H40         -4.1740    -8.9320     6.4130 hn         1 9JD       0.454467
     77 H403        -3.4560    -9.9900     5.3960 hn         1 9JD       0.454467
     78 C02         -5.0140     2.4630     0.7620 c3         1 9JD      -0.039100
     79 N21         -0.0090     4.8660     4.2560 ns         1 9JD      -0.576900
@<TRIPOS>BOND
     1    36    35 1
     2    35    33 1
     3    11    78 1
     4    33    34 1
     5    33    32 1
     6    78    12 1
     7    13    12 ar
     8    13    14 ar
     9    32    30 1
    10    12    17 ar
    11    31    30 2
    12    14    15 ar
    13    30    28 1
    14    17    16 ar
    15    15    16 ar
    16    28    27 1
    17    28    29 1
    18    79    21 1
    19    79    22 1
    20    16    18 1
    21    21     8 1
    22    10    22 1
    23    10    23 1
    24    22     9 2
    25    27    26 1
    26    29    24 1
    27     7     8 1
    28     7     6 1
    29    24     6 1
    30    24    25 1
    31    26    25 1
    32    19     1 1
    33    18     1 ar
    34    18     5 ar
    35     6     5 1
    36     6    20 1
    37     1     2 ar
    38     5     4 ar
    39     2     3 ar
    40     4     3 ar
    41     2    37 1
    42     3    38 1
    43     4    39 1
    44     7    40 1
    45     7    41 1
    46     8    42 1
    47     8    43 1
    48    79    44 1
    49    11    45 1
    50    11    46 1
    51    11    47 1
    52    78    48 1
    53    78    49 1
    54    13    50 1
    55    14    51 1
    56    15    52 1
    57    17    53 1
    58    20    54 1
    59    21    55 1
    60    21    56 1
    61    23    57 1
    62    23    58 1
    63    23    59 1
    64    24    60 1
    65    25    61 1
    66    25    62 1
    67    26    63 1
    68    26    64 1
    69    27    65 1
    70    27    66 1
    71    29    67 1
    72    29    68 1
    73    32    69 1
    74    32    70 1
    75    33    71 1
    76    34    72 1
    77    35    73 1
    78    35    74 1
    79    36    75 1
    80    36    76 1
    81    77    36 1
@<TRIPOS>SUBSTRUCTURE
     1 9JD         1 TEMP              0 ****  ****    0 ROOT
