@<TRIPOS>MOLECULE
molecule
   19    18     1     0     0
SMALL
bcc


@<TRIPOS>ATOM
      1 C02          0.0000     0.0000     0.0000 c3         1 9JE       0.140400
      2 C03          1.5310     0.0000     0.0000 c3         1 9JE      -0.079400
      3 C04          2.0400     0.0000     1.4430 c3         1 9JE      -0.082400
      4 C05          3.5710    -0.0000     1.4420 c3         1 9JE      -0.079400
      5 C06          4.0810     0.0000     2.8860 c3         1 9JE       0.140400
      6 O01         -0.4760     0.0000    -1.3470 oh         1 9JE      -0.611300
      7 O07          5.5090     0.0000     2.8860 oh         1 9JE      -0.611300
      8 H1          -0.3610    -0.8850     0.5100 h1         1 9JE       0.018200
      9 H2          -0.3610     0.8840     0.5110 h1         1 9JE       0.018200
     10 H3           1.8920     0.8850    -0.5110 hc         1 9JE       0.056700
     11 H4           1.8920    -0.8850    -0.5110 hc         1 9JE       0.056700
     12 H5           1.6790     0.8850     1.9540 hc         1 9JE       0.040700
     13 H6           1.6790    -0.8850     1.9540 hc         1 9JE       0.040700
     14 H7           3.9320    -0.8850     0.9320 hc         1 9JE       0.056700
     15 H8           3.9320     0.8850     0.9320 hc         1 9JE       0.056700
     16 H9           3.7200    -0.8850     3.3970 h1         1 9JE       0.018200
     17 H10          3.7200     0.8840     3.3970 h1         1 9JE       0.018200
     18 H11         -1.4190     0.0000    -1.3470 ho         1 9JE       0.401500
     19 H12          5.8240     0.0000     3.7740 ho         1 9JE       0.401500
@<TRIPOS>BOND
     1     6     1 1
     2     1     2 1
     3     2     3 1
     4     3     4 1
     5     4     5 1
     6     7     5 1
     7     1     8 1
     8     1     9 1
     9     2    10 1
    10     2    11 1
    11     3    12 1
    12     3    13 1
    13     4    14 1
    14     4    15 1
    15     5    16 1
    16     5    17 1
    17     6    18 1
    18     7    19 1
@<TRIPOS>SUBSTRUCTURE
     1 9JE         1 TEMP              0 ****  ****    0 ROOT
