@<TRIPOS>MOLECULE
molecule
   51    53     1     0     0
SMALL
bcc


@<TRIPOS>ATOM
      1 O27          0.0000     0.0000     0.0000 o          1 9JG      -0.579100
      2 C25          1.2160     0.0000     0.0000 c          1 9JG       0.758100
      3 N28          1.8890     0.0000     1.1670 ns         1 9JG      -0.570900
      4 C29          1.1570     0.0010     2.4350 c3         1 9JG       0.080000
      5 C30          2.1510     0.0010     3.5990 c3         1 9JG      -0.100100
      6 N22          1.8890    -0.0060    -1.1680 ns         1 9JG      -0.555400
      7 C19          1.1970    -0.1200    -2.3720 ca         1 9JG       0.581200
      8 N17         -0.1340    -0.1120    -2.3600 nb         1 9JG      -0.675000
      9 C13         -0.8520    -0.2150    -3.4540 ca         1 9JG       0.491200
     10 C10         -0.2230    -0.3400    -4.7030 ca         1 9JG      -0.191300
     11 C16          1.9060    -0.2310    -3.5510 ca         1 9JG      -0.318300
     12 C12          1.1960    -0.3520    -4.7530 ca         1 9JG       0.035000
     13 C15          1.8460    -0.4750    -6.0020 cp         1 9JG      -0.049000
     14 C18          3.3250    -0.4900    -6.0790 cp         1 9JG       0.000000
     15 C21          3.9970    -1.4870    -6.7950 ca         1 9JG      -0.246800
     16 C24          5.3750    -1.4620    -6.8410 ca         1 9JG       0.419200
     17 N26          6.0580    -0.5170    -6.2230 nb         1 9JG      -0.690000
     18 C23          5.4630     0.4410    -5.5370 ca         1 9JG       0.419200
     19 C20          4.0870     0.4950    -5.4420 ca         1 9JG      -0.246800
     20 C14          1.0820    -0.5830    -7.1520 ca         1 9JG      -0.086000
     21 C11         -0.3060    -0.5710    -7.0860 ca         1 9JG      -0.143000
     22 C8          -0.9570    -0.4510    -5.8940 ca         1 9JG      -0.051300
     23 C6          -2.4640    -0.4420    -5.8540 c3         1 9JG       0.040300
     24 N4          -2.9390     0.9380    -5.7350 ns         1 9JG      -0.550900
     25 C2          -4.2620     1.1930    -5.6810 c          1 9JG       0.725100
     26 O1          -5.0600     0.2770    -5.7330 o          1 9JG      -0.613000
     27 O3          -4.6990     2.4620    -5.5700 os         1 9JG      -0.432900
     28 C5          -6.1370     2.6610    -5.5180 c3         1 9JG       0.254500
     29 C7          -6.4280     4.0980    -5.3980 c1         1 9JG      -0.156100
     30 C9          -6.6680     5.2430    -5.2830 c1         1 9JG      -0.114500
     31 H1           2.7360     0.5260     1.2570 hn         1 9JG       0.289500
     32 H2           0.7710    -0.9920     2.6300 h1         1 9JG       0.059200
     33 H3           0.3350     0.7040     2.3770 h1         1 9JG       0.059200
     34 H4           1.6120     0.0980     4.5340 hc         1 9JG       0.041367
     35 H5           2.7080    -0.9280     3.5980 hc         1 9JG       0.041367
     36 H6           2.8360     0.8330     3.4890 hc         1 9JG       0.041367
     37 H7           2.8900    -0.0350    -1.1680 hn         1 9JG       0.326500
     38 H8          -1.9340    -0.2040    -3.3940 h4         1 9JG       0.048100
     39 H9           2.9890    -0.2690    -3.5300 ha         1 9JG       0.147000
     40 H10          3.4350    -2.2610    -7.3030 ha         1 9JG       0.145500
     41 H11          5.9120    -2.2250    -7.3910 h4         1 9JG       0.024100
     42 H12          6.0560     1.2000    -5.0410 h4         1 9JG       0.024100
     43 H13          3.5970     1.2830    -4.8840 ha         1 9JG       0.145500
     44 H14          1.5650    -0.6780    -8.1160 ha         1 9JG       0.139000
     45 H15         -0.8920    -0.6560    -7.9930 ha         1 9JG       0.134000
     46 H16         -2.8460     0.0100    -6.7620 h1         1 9JG       0.124700
     47 H17         -2.8290    -1.4590    -5.7760 h1         1 9JG       0.124700
     48 H18         -2.3870     1.6900    -6.0970 hn         1 9JG       0.339500
     49 H19         -6.5230     2.2680    -4.5850 h1         1 9JG       0.071200
     50 H20         -6.6040     2.1430    -6.3480 h1         1 9JG       0.071200
     51 H21         -6.8710     6.3020    -5.1810 ha         1 9JG       0.169500
@<TRIPOS>BOND
     1    26    25 2
     2    28    29 1
     3    28    27 1
     4    29    30 3
     5    25    27 1
     6    25    24 1
     7    23    24 1
     8    23    22 1
     9     8     9 ar
    10     8     7 ar
    11     9    10 ar
    12     6     7 1
    13     6     2 1
    14     7    11 ar
    15    10    22 ar
    16    10    12 ar
    17    22    21 ar
    18     5     4 1
    19     3     2 1
    20     3     4 1
    21     2     1 2
    22    11    12 ar
    23    21    20 ar
    24    12    13 ar
    25    20    13 ar
    26    13    14 1
    27    14    15 ar
    28    14    19 ar
    29    15    16 ar
    30    19    18 ar
    31    16    17 ar
    32    18    17 ar
    33     3    31 1
    34     4    32 1
    35     4    33 1
    36     5    34 1
    37     5    35 1
    38     5    36 1
    39     6    37 1
    40     9    38 1
    41    11    39 1
    42    15    40 1
    43    16    41 1
    44    18    42 1
    45    19    43 1
    46    20    44 1
    47    21    45 1
    48    23    46 1
    49    23    47 1
    50    24    48 1
    51    28    49 1
    52    28    50 1
    53    30    51 1
@<TRIPOS>SUBSTRUCTURE
     1 9JG         1 TEMP              0 ****  ****    0 ROOT
