@<TRIPOS>MOLECULE
molecule
   30    31     1     0     0
SMALL
bcc


@<TRIPOS>ATOM
      1 O15          0.0000     0.0000     0.0000 o          1 9JH      -0.423100
      2 C14          1.2160     0.0000     0.0000 c          1 9JH       0.506700
      3 N16          1.8900     0.0000     1.1670 nz         1 9JH      -0.678400
      4 C3           5.5040     2.0250    -5.0360 ca         1 9JH      -0.120500
      5 C4           4.3500     1.3740    -5.4300 ca         1 9JH      -0.105300
      6 C5           3.4300     2.0230    -6.2330 ca         1 9JH      -0.120500
      7 C7           4.0920    -0.0420    -4.9840 c3         1 9JH      -0.001800
      8 C6           3.6660     3.3230    -6.6430 ca         1 9JH      -0.119000
      9 C1           4.8200     3.9730    -6.2490 ca         1 9JH      -0.112000
     10 C2           5.7360     3.3250    -5.4400 ca         1 9JH      -0.119000
     11 C10          1.2590    -0.0120    -2.4910 ca         1 9JH      -0.063000
     12 C11          1.9550    -0.0070    -1.2810 ca         1 9JH      -0.226600
     13 C9           1.9560    -0.0230    -3.6820 ca         1 9JH      -0.117500
     14 C8           3.3390    -0.0300    -3.6790 ca         1 9JH       0.015700
     15 C13          4.0340    -0.0230    -2.4830 ca         1 9JH      -0.117500
     16 C12          3.3500    -0.0050    -1.2840 ca         1 9JH      -0.063000
     17 H1           5.0040     4.9920    -6.5670 ha         1 9JH       0.143000
     18 H2           6.6410     3.8350    -5.1310 ha         1 9JH       0.141000
     19 H6           2.9470     3.8310    -7.2740 ha         1 9JH       0.141000
     20 H5           2.5250     1.5140    -6.5420 ha         1 9JH       0.127500
     21 H71C         5.0370    -0.5560    -4.8510 hc         1 9JH       0.073700
     22 H72C         3.5040    -0.5560    -5.7350 hc         1 9JH       0.073700
     23 H9           1.4180    -0.0270    -4.6220 ha         1 9JH       0.165000
     24 H13          5.1180    -0.0220    -2.4870 ha         1 9JH       0.165000
     25 H10          0.1760    -0.0070    -2.4950 ha         1 9JH       0.138500
     26 H12          3.8960    -0.0000    -0.3480 ha         1 9JH       0.138500
     27 H161         2.4640    -0.8180     1.2210 hn         1 9JH       0.477133
     28 H162         2.4660     0.8170     1.2190 hn         1 9JH       0.477133
     29 H163         1.2400     0.0010     1.9280 hn         1 9JH       0.477133
     30 H3           6.2230     1.5170    -4.4050 ha         1 9JH       0.127500
@<TRIPOS>BOND
     1     9    10 ar
     2     9     8 ar
     3    10     4 ar
     4     4     5 ar
     5     5     6 ar
     6     5     7 1
     7     6     8 ar
     8     7    14 1
     9    14    13 ar
    10    14    15 ar
    11    13    11 ar
    12    11    12 ar
    13    12    16 ar
    14    12     2 1
    15    16    15 ar
    16     2     1 2
    17     2     3 1
    18     9    17 1
    19    10    18 1
    20     8    19 1
    21     4    30 1
    22     6    20 1
    23     7    21 1
    24     7    22 1
    25    13    23 1
    26    15    24 1
    27    11    25 1
    28    16    26 1
    29     3    27 1
    30     3    28 1
    31    29     3 1
@<TRIPOS>SUBSTRUCTURE
     1 9JH         1 TEMP              0 ****  ****    0 ROOT
