@<TRIPOS>MOLECULE
9JH
   30    31     1     0     0
SMALL
bcc


@<TRIPOS>ATOM
      1 O15          0.0000     0.0000     0.0000 o          1 9JH      -0.434100
      2 C14          1.2160     0.0000     0.0000 c          1 9JH       0.357700
      3 N16          1.8900     0.0000     1.1670 nz         1 9JH       0.200600
      4 C3           5.5040     2.0250    -5.0360 ca         1 9JH      -0.096000
      5 C4           4.3500     1.3740    -5.4300 ca         1 9JH      -0.116300
      6 C5           3.4300     2.0230    -6.2330 ca         1 9JH      -0.096000
      7 C7           4.0920    -0.0420    -4.9840 c3         1 9JH       0.075200
      8 C6           3.6660     3.3230    -6.6430 ca         1 9JH      -0.089500
      9 C1           4.8200     3.9730    -6.2490 ca         1 9JH      -0.083000
     10 C2           5.7360     3.3250    -5.4400 ca         1 9JH      -0.089500
     11 C10          1.2590    -0.0120    -2.4910 ca         1 9JH      -0.026500
     12 C11          1.9550    -0.0070    -1.2810 ca         1 9JH      -0.252600
     13 C9           1.9560    -0.0230    -3.6820 ca         1 9JH      -0.088000
     14 C8           3.3390    -0.0300    -3.6790 ca         1 9JH       0.016700
     15 C13          4.0340    -0.0230    -2.4830 ca         1 9JH      -0.088000
     16 C12          3.3500    -0.0050    -1.2840 ca         1 9JH      -0.026500
     17 H1           5.0040     4.9920    -6.5670 ha         1 9JH       0.112000
     18 H2           6.6410     3.8350    -5.1310 ha         1 9JH       0.111000
     19 H6           2.9470     3.8310    -7.2740 ha         1 9JH       0.111000
     20 H5           2.5250     1.5140    -6.5420 ha         1 9JH       0.103000
     21 H71C         5.0370    -0.5560    -4.8510 hc         1 9JH       0.037200
     22 H72C         3.5040    -0.5560    -5.7350 hc         1 9JH       0.037200
     23 H9           1.4180    -0.0270    -4.6220 ha         1 9JH       0.133500
     24 H13          5.1180    -0.0220    -2.4870 ha         1 9JH       0.133500
     25 H10          0.1760    -0.0070    -2.4950 ha         1 9JH       0.106500
     26 H12          3.8960    -0.0000    -0.3480 ha         1 9JH       0.106500
     27 H161         2.4640    -0.8180     1.2210 hn         1 9JH       0.246467
     28 H162         2.4660     0.8170     1.2190 hn         1 9JH       0.246467
     29 H163         1.2400     0.0010     1.9280 hn         1 9JH       0.246467
     30 H3           6.2230     1.5170    -4.4050 ha         1 9JH       0.103000
@<TRIPOS>BOND
     1     1     2 2   
     2     2     3 1   
     3     2    12 1   
     4     3    27 1   
     5     3    28 1   
     6     3    29 1   
     7     4     5 ar  
     8     4    10 ar  
     9     4    30 1   
    10     5     6 ar  
    11     5     7 1   
    12     6     8 ar  
    13     6    20 1   
    14     7    14 1   
    15     7    21 1   
    16     7    22 1   
    17     8     9 ar  
    18     8    19 1   
    19     9    10 ar  
    20     9    17 1   
    21    10    18 1   
    22    11    12 ar  
    23    11    13 ar  
    24    11    25 1   
    25    12    16 ar  
    26    13    14 ar  
    27    13    23 1   
    28    14    15 ar  
    29    15    16 ar  
    30    15    24 1   
    31    16    26 1   
@<TRIPOS>SUBSTRUCTURE
     1 9JH         1 TEMP              0 ****  ****    0 ROOT
