@<TRIPOS>MOLECULE
molecule
   27    28     1     0     0
SMALL
bcc


@<TRIPOS>ATOM
      1 C11          0.0000     0.0000     0.0000 ca         1 9JK       0.054600
      2 C12          1.3890     0.0000     0.0000 ca         1 9JK      -0.146000
      3 C13          2.0780     0.0000     1.1970 ca         1 9JK      -0.112500
      4 C14          1.3860    -0.0000     2.3950 ca         1 9JK      -0.146000
      5 C15          0.0030     0.0000     2.3980 ca         1 9JK      -0.112500
      6 C02         -0.9030     2.0010    -4.3510 ca         1 9JK       0.072900
      7 C03         -1.7520     2.1980    -5.4340 ca         1 9JK      -0.122000
      8 C04         -2.9800     1.5690    -5.4730 ca         1 9JK      -0.111000
      9 C05         -3.3770     0.7370    -4.4380 ca         1 9JK      -0.125000
     10 C06         -2.5490     0.5290    -3.3560 ca         1 9JK      -0.111000
     11 C07         -1.3000     1.1540    -3.3020 ca         1 9JK      -0.101600
     12 C08         -0.2140     0.6640    -2.2750 c          1 9JK       0.661700
     13 O09          0.8750     1.2030    -2.2080 o          1 9JK      -0.541100
     14 N10         -0.7000    -0.0060    -1.2110 ns         1 9JK      -0.480100
     15 C16         -0.6920     0.0010     1.2040 ca         1 9JK      -0.146000
     16 H1           1.9310    -0.0000    -0.9380 ha         1 9JK       0.147000
     17 H2           3.1610    -0.0000     1.1980 ha         1 9JK       0.132000
     18 H3           1.9290    -0.0000     3.3320 ha         1 9JK       0.129000
     19 H4          -0.5350     0.0010     3.3380 ha         1 9JK       0.132000
     20 H5           0.5000     4.1090    -4.4640 hs         1 9JK       0.181800
     21 H6          -1.4500     2.8460    -6.2480 ha         1 9JK       0.143000
     22 H7          -3.6380     1.7260    -6.3190 ha         1 9JK       0.136000
     23 H8          -4.3430     0.2500    -4.4780 ha         1 9JK       0.136000
     24 H9          -2.8640    -0.1240    -2.5510 ha         1 9JK       0.129000
     25 H10         -1.5470    -0.5330    -1.2970 hn         1 9JK       0.323500
     26 H11         -1.7760     0.0010     1.2070 ha         1 9JK       0.147000
     27 S01          0.6650     2.8020    -4.2970 sh         1 9JK      -0.269700
@<TRIPOS>BOND
     1     9     8 ar
     2     9    10 ar
     3     8     7 ar
     4    10    11 ar
     5     7     6 ar
     6    11     6 ar
     7    11    12 1
     8    14    12 1
     9    14     1 1
    10     6    27 1
    11     2     1 ar
    12     2     3 ar
    13    12    13 2
    14     1    15 ar
    15     3     4 ar
    16    15     5 ar
    17     4     5 ar
    18     2    16 1
    19     3    17 1
    20     4    18 1
    21     5    19 1
    22    27    20 1
    23     7    21 1
    24     8    22 1
    25     9    23 1
    26    10    24 1
    27    14    25 1
    28    15    26 1
@<TRIPOS>SUBSTRUCTURE
     1 9JK         1 TEMP              0 ****  ****    0 ROOT
