@<TRIPOS>MOLECULE
molecule
   45    48     1     0     0
SMALL
bcc


@<TRIPOS>ATOM
      1 C1           0.0000     0.0000     0.0000 ca         1 9JN      -0.091000
      2 C2           1.3820     0.0000     0.0000 ca         1 9JN      -0.109500
      3 C3          -0.6920    -0.0010     1.1960 ca         1 9JN      -0.109500
      4 C4          -0.4340    -4.1250    12.7850 ca         1 9JN      -0.276300
      5 C5          -0.1350    -3.9010    11.4530 ca         1 9JN      -0.055000
      6 C6           2.0720     0.0000     1.1980 ca         1 9JN      -0.114000
      7 C7          -0.0010    -0.0010     2.3940 ca         1 9JN      -0.114000
      8 C8           1.9650    -3.0860     7.6480 cc         1 9JN      -0.053000
      9 C9           0.3620    -4.9860    13.5240 ca         1 9JN       0.457200
     10 C10          2.6490    -5.4260     9.6630 cd         1 9JN      -0.058100
     11 C11         -0.2000    -3.8320     7.9190 cd         1 9JN      -0.053100
     12 C12          0.9670    -4.5600    10.9080 ca         1 9JN      -0.213100
     13 C13          1.0820    -3.8740     8.3660 cc         1 9JN      -0.043800
     14 C14          1.5910    -4.5870     9.5770 cc         1 9JN      -0.113400
     15 C15          1.3800    -0.0010     2.3950 ca         1 9JN      -0.143300
     16 C16          1.3740    -2.4080     6.6220 cd         1 9JN      -0.183700
     17 C17          1.7300    -5.4220    11.7180 ca         1 9JN       0.472800
     18 C19          2.1710     1.4190     4.2680 c3         1 9JN       0.086800
     19 C20          2.1340    -0.0020     3.7000 c3         1 9JN       0.145000
     20 N21          1.3930    -5.6030    12.9890 nb         1 9JN      -0.701000
     21 N22          2.7390    -5.9280    10.9340 na         1 9JN      -0.269100
     22 N23          1.4600    -0.8890     4.6520 ns         1 9JN      -0.593900
     23 N24          2.8000     1.3980     5.5960 nz         1 9JN      -0.820600
     24 O25          3.3320    -1.2060     5.8650 o          1 9JN      -0.633100
     25 S26         -0.3410    -2.7860     6.5790 ss         1 9JN      -0.075800
     26 H1          -0.5390    -0.0040    -0.9400 ha         1 9JN       0.155000
     27 H2           1.9270     0.0060    -0.9360 ha         1 9JN       0.152500
     28 H3          -1.7760    -0.0190     1.1950 ha         1 9JN       0.152500
     29 H6           3.1550     0.0000     1.1990 ha         1 9JN       0.130000
     30 H7          -0.5460     0.0010     3.3300 ha         1 9JN       0.130000
     31 H8           3.0170    -3.0080     7.8980 ha         1 9JN       0.174000
     32 H9           0.1120    -5.1730    14.5620 h4         1 9JN       0.034100
     33 H10          3.3080    -5.6790     8.8420 h4         1 9JN       0.176000
     34 H11         -1.0270    -4.3650     8.3730 h4         1 9JN       0.197000
     35 H12          1.1430     1.7380     4.3870 hx         1 9JN       0.112200
     36 H13          2.6990     2.0890     3.6010 hx         1 9JN       0.112200
     37 H14          3.1430    -0.3580     3.5360 h1         1 9JN       0.101700
     38 H15          3.4390    -6.5710    11.2460 hn         1 9JN       0.315700
     39 H16          0.5060    -1.1450     4.4930 hn         1 9JN       0.353500
     40 H17          2.4440     2.1430     6.1620 hn         1 9JN       0.460133
     41 H18          3.7880     1.5240     5.4920 hn         1 9JN       0.460133
     42 C18          2.1580    -1.4500     5.6590 c          1 9JN       0.707700
     43 H4          -1.2740    -3.6250    13.2520 ha         1 9JN       0.145000
     44 H243         2.6080     0.5190     6.0340 hn         1 9JN       0.460133
     45 H5          -0.7400    -3.2340    10.8520 ha         1 9JN       0.132000
@<TRIPOS>BOND
     1     1     3 ar
     2     1     2 ar
     3     3     7 ar
     4     2     6 ar
     5     7    15 ar
     6     6    15 ar
     7    15    19 1
     8    24    42 2
     9    42    16 1
    10    42    22 1
    11    25    16 1
    12    25    11 1
    13    19    22 1
    14    19    18 1
    15    16     8 2
    16    11    13 2
    17     8    13 1
    18    18    23 1
    19    13    14 1
    20    14    10 2
    21    14    12 1
    22    10    21 1
    23    12     5 ar
    24    12    17 ar
    25     5     4 ar
    26    21    17 1
    27    17    20 ar
    28     4     9 ar
    29    20     9 ar
    30     1    26 1
    31     2    27 1
    32     3    28 1
    33     4    43 1
    34     5    45 1
    35     6    29 1
    36     7    30 1
    37     8    31 1
    38     9    32 1
    39    10    33 1
    40    11    34 1
    41    18    35 1
    42    18    36 1
    43    19    37 1
    44    21    38 1
    45    22    39 1
    46    23    40 1
    47    23    41 1
    48    44    23 1
@<TRIPOS>SUBSTRUCTURE
     1 9JN         1 TEMP              0 ****  ****    0 ROOT
