@<TRIPOS>MOLECULE
9JN
   45    48     1     0     0
SMALL
bcc


@<TRIPOS>ATOM
      1 C1           0.0000     0.0000     0.0000 ca         1 9JN      -0.059000
      2 C2           1.3820     0.0000     0.0000 ca         1 9JN      -0.077000
      3 C3          -0.6920    -0.0010     1.1960 ca         1 9JN      -0.077000
      4 C4          -0.4340    -4.1250    12.7850 ca         1 9JN      -0.237300
      5 C5          -0.1350    -3.9010    11.4530 ca         1 9JN      -0.028000
      6 C6           2.0720     0.0000     1.1980 ca         1 9JN      -0.085000
      7 C7          -0.0010    -0.0010     2.3940 ca         1 9JN      -0.085000
      8 C8           1.9650    -3.0860     7.6480 cc         1 9JN      -0.010000
      9 C9           0.3620    -4.9860    13.5240 ca         1 9JN       0.425200
     10 C10          2.6490    -5.4260     9.6630 cd         1 9JN      -0.231100
     11 C11         -0.2000    -3.8320     7.9190 cd         1 9JN       0.034900
     12 C12          0.9670    -4.5600    10.9080 ca         1 9JN      -0.208100
     13 C13          1.0820    -3.8740     8.3660 cc         1 9JN      -0.028800
     14 C14          1.5910    -4.5870     9.5770 cc         1 9JN      -0.107400
     15 C15          1.3800    -0.0010     2.3950 ca         1 9JN      -0.161300
     16 C16          1.3740    -2.4080     6.6220 cd         1 9JN      -0.163700
     17 C17          1.7300    -5.4220    11.7180 ca         1 9JN       0.232800
     18 C19          2.1710     1.4190     4.2680 c3         1 9JN      -0.054200
     19 C20          2.1340    -0.0020     3.7000 c3         1 9JN       0.082000
     20 N21          1.3930    -5.6030    12.9890 nb         1 9JN      -0.563000
     21 N22          2.7390    -5.9280    10.9340 na         1 9JN       0.279900
     22 N23          1.4600    -0.8890     4.6520 ns         1 9JN      -0.231900
     23 N24          2.8000     1.3980     5.5960 nz         1 9JN       0.012400
     24 O25          3.3320    -1.2060     5.8650 o          1 9JN      -0.678100
     25 S26         -0.3410    -2.7860     6.5790 ss         1 9JN      -0.209800
     26 H1          -0.5390    -0.0040    -0.9400 ha         1 9JN       0.120000
     27 H2           1.9270     0.0060    -0.9360 ha         1 9JN       0.120500
     28 H3          -1.7760    -0.0190     1.1950 ha         1 9JN       0.120500
     29 H6           3.1550     0.0000     1.1990 ha         1 9JN       0.105500
     30 H7          -0.5460     0.0010     3.3300 ha         1 9JN       0.105500
     31 H8           3.0170    -3.0080     7.8980 ha         1 9JN       0.141000
     32 H9           0.1120    -5.1730    14.5620 h4         1 9JN      -0.014900
     33 H10          3.3080    -5.6790     8.8420 h4         1 9JN       0.146000
     34 H11         -1.0270    -4.3650     8.3730 h4         1 9JN       0.170000
     35 H12          1.1430     1.7380     4.3870 hx         1 9JN       0.085200
     36 H13          2.6990     2.0890     3.6010 hx         1 9JN       0.085200
     37 H14          3.1430    -0.3580     3.5360 h1         1 9JN       0.071700
     38 H15          3.4390    -6.5710    11.2460 hn         1 9JN       0.126700
     39 H16          0.5060    -1.1450     4.4930 hn         1 9JN       0.230500
     40 H17          2.4440     2.1430     6.1620 hn         1 9JN       0.241800
     41 H18          3.7880     1.5240     5.4920 hn         1 9JN       0.241800
     42 C18          2.1580    -1.4500     5.6590 c          1 9JN       0.666700
     43 H4          -1.2740    -3.6250    13.2520 ha         1 9JN       0.118000
     44 H243         2.6080     0.5190     6.0340 hn         1 9JN       0.241800
     45 H5          -0.7400    -3.2340    10.8520 ha         1 9JN       0.102000
@<TRIPOS>BOND
     1     1     2 ar  
     2     1     3 ar  
     3     1    26 1   
     4     2     6 ar  
     5     2    27 1   
     6     3     7 ar  
     7     3    28 1   
     8     4     5 ar  
     9     4     9 ar  
    10     4    43 1   
    11     5    12 ar  
    12     5    45 1   
    13     6    15 ar  
    14     6    29 1   
    15     7    15 ar  
    16     7    30 1   
    17     8    13 1   
    18     8    16 2   
    19     8    31 1   
    20     9    20 ar  
    21     9    32 1   
    22    10    14 2   
    23    10    21 1   
    24    10    33 1   
    25    11    13 2   
    26    11    25 1   
    27    11    34 1   
    28    12    14 1   
    29    12    17 ar  
    30    13    14 1   
    31    15    19 1   
    32    16    25 1   
    33    16    42 1   
    34    17    20 ar  
    35    17    21 1   
    36    18    19 1   
    37    18    23 1   
    38    18    35 1   
    39    18    36 1   
    40    19    22 1   
    41    19    37 1   
    42    21    38 1   
    43    22    39 1   
    44    22    42 1   
    45    23    40 1   
    46    23    41 1   
    47    23    44 1   
    48    24    42 2   
@<TRIPOS>SUBSTRUCTURE
     1 9JN         1 TEMP              0 ****  ****    0 ROOT
