@<TRIPOS>MOLECULE
9JP
   60    64     1     0     0
SMALL
bcc


@<TRIPOS>ATOM
      1 C4           0.0000     0.0000     0.0000 ca         1 9JP      -0.100000
      2 N1           6.0150     1.2360     1.6540 n          1 9JP       0.104000
      3 C1           1.3800     0.0010     2.4030 ca         1 9JP      -0.105000
      4 C10          6.7680     3.5400     0.4260 c2         1 9JP       0.251000
      5 C11          6.7270     3.4690     1.8400 c2         1 9JP      -0.282000
      6 C12          6.3460     2.3160     2.4290 c2         1 9JP      -0.099000
      7 C13          2.4590    -1.1980    -1.6860 ca         1 9JP       0.085000
      8 C14          3.1130    -1.2410    -2.8980 ca         1 9JP      -0.067000
      9 C15          3.5250    -2.4770    -3.4250 ca         1 9JP      -0.004000
     10 C16          3.2630    -3.6690    -2.7030 ca         1 9JP      -0.030000
     11 C17          2.5920    -3.5950    -1.4640 ca         1 9JP      -0.021000
     12 C18          2.1990    -2.3700    -0.9720 ca         1 9JP      -0.146000
     13 C19          4.1920    -2.5480    -4.6580 ca         1 9JP      -0.058000
     14 C2           2.0790     0.0000     1.2080 ca         1 9JP      -0.083000
     15 C20          4.5850    -3.7820    -5.1490 ca         1 9JP       0.044000
     16 C21          4.3190    -4.9580    -4.4230 ca         1 9JP      -0.079000
     17 C22          3.6740    -4.9050    -3.2290 ca         1 9JP      -0.080000
     18 C23          5.2660    -3.8630    -6.4060 c1         1 9JP      -0.101000
     19 C24          3.3840     0.0330    -3.6550 c3         1 9JP      -0.065000
     20 C25          3.2220    -5.2140     0.1580 c2         1 9JP       0.177000
     21 C26          2.9350    -6.4710     0.9390 c3         1 9JP       0.052000
     22 C27          1.0720    -5.4860    -0.9570 c3         1 9JP      -0.082000
     23 C3           1.3860     0.0000     0.0000 ca         1 9JP       0.083000
     24 C5          -0.6910     0.0060     1.1980 ca         1 9JP      -0.073000
     25 C6          -0.0030     0.0060     2.3960 ca         1 9JP      -0.080000
     26 C7           4.0830    -0.0100     2.4880 DU         1 9JP      -0.710000
     27 C8           5.6000    -0.0150     2.2930 c3         1 9JP      -0.191000
     28 C9           6.0620     1.3160     0.3120 c2         1 9JP       0.179000
     29 F1           4.0030    -6.7390     1.8000 f          1 9JP      -0.132000
     30 N2           6.4350     2.4550    -0.3010 ns         1 9JP       0.087000
     31 N3           2.3260    -4.7590    -0.7400 n          1 9JP       0.047000
     32 N4           5.7990    -3.9460    -7.4060 n1         1 9JP      -0.052000
     33 O1           2.0670    -0.0010    -1.1770 os         1 9JP      -0.124000
     34 O2           3.4390    -0.0050     1.2120 os         1 9JP       0.106000
     35 O3           5.7640     0.3450    -0.3560 o          1 9JP      -0.414000
     36 O4           7.1090     4.5700    -0.1280 o          1 9JP      -0.386000
     37 O5           4.2600    -4.6130     0.3370 o          1 9JP      -0.335000
     38 H1          -0.5420     0.0000    -0.9380 ha         1 9JP       0.129000
     39 H2           1.9160     0.0010     3.3450 ha         1 9JP       0.154000
     40 H3           6.9920     4.3350     2.4350 ha         1 9JP       0.148000
     41 H4           6.4160     2.2100     3.5050 h4         1 9JP       0.133000
     42 H5           1.6840    -2.3210    -0.0200 ha         1 9JP       0.124000
     43 H6           4.3850    -1.6440    -5.2230 ha         1 9JP       0.125000
     44 H7           4.6300    -5.9190    -4.8140 ha         1 9JP       0.113000
     45 H8           3.4770    -5.8190    -2.6810 ha         1 9JP       0.109000
     46 H9           3.1360     0.8840    -3.0320 hc         1 9JP       0.056333
     47 H10          4.4330     0.0770    -3.9240 hc         1 9JP       0.056333
     48 H11          2.7790     0.0550    -4.5540 hc         1 9JP       0.056333
     49 H12          2.9020    -7.3160     0.2630 h1         1 9JP       0.060500
     50 H13          1.9810    -6.3730     1.4420 h1         1 9JP       0.060500
     51 H14          0.5110    -5.0090    -1.7510 h1         1 9JP       0.050667
     52 H15          0.4880    -5.4770    -0.0450 h1         1 9JP       0.050667
     53 H16          1.2920    -6.5100    -1.2350 h1         1 9JP       0.050667
     54 H17         -1.7740     0.0060     1.1980 ha         1 9JP       0.115000
     55 H18         -0.5490     0.0070     3.3320 ha         1 9JP       0.118000
     56 H19          3.5970     0.1680     1.5370 ha         1 9JP       0.224500
     57 H20          3.8110     0.7740     3.1850 ha         1 9JP       0.224500
     58 H21          4.6470    -0.3290     1.8860 DU         1 9JP       0.275000
     59 H22          5.5030     0.1400     3.3610 h1         1 9JP       0.129000
     60 H23          6.5120     2.4900    -1.2980 hn         1 9JP       0.118000
@<TRIPOS>BOND
     1     1    23 1   
     2     1    24 1   
     3     1    38 1   
     4     2     6 1   
     5     2    27 1   
     6     2    28 1   
     7     3    14 1   
     8     3    25 1   
     9     3    39 1   
    10     4     5 1   
    11     4    30 1   
    12     4    36 1   
    13     5     6 1   
    14     5    40 1   
    15     6    41 1   
    16     7     8 1   
    17     7    12 1   
    18     7    33 1   
    19     8     9 1   
    20     8    19 1   
    21     9    10 1   
    22     9    13 1   
    23    10    11 1   
    24    10    17 1   
    25    11    12 1   
    26    11    31 1   
    27    12    42 1   
    28    13    15 1   
    29    13    43 1   
    30    14    23 1   
    31    14    34 1   
    32    15    16 1   
    33    15    18 1   
    34    16    17 1   
    35    16    44 1   
    36    17    45 1   
    37    18    32 1   
    38    19    46 1   
    39    19    47 1   
    40    19    48 1   
    41    20    21 1   
    42    20    31 1   
    43    20    37 1   
    44    21    29 1   
    45    21    49 1   
    46    21    50 1   
    47    22    31 1   
    48    22    51 1   
    49    22    52 1   
    50    22    53 1   
    51    23    33 1   
    52    24    25 1   
    53    24    54 1   
    54    25    55 1   
    55    26    27 1   
    56    26    34 1   
    57    26    56 1   
    58    26    57 1   
    59    26    58 1   
    60    27    58 1   
    61    27    59 1   
    62    28    30 1   
    63    28    35 1   
    64    30    60 1   
@<TRIPOS>SUBSTRUCTURE
     1 9JP         1 TEMP              0 ****  ****    0 ROOT
