@<TRIPOS>MOLECULE
9JQ
   38    40     1     0     0
SMALL
bcc


@<TRIPOS>ATOM
      1 C16          0.0000     0.0000     0.0000 cp         1 9JQ      -0.171500
      2 C17          1.3950     0.0000     0.0000 ca         1 9JQ       0.122900
      3 C18          2.0830     0.0000     1.2050 ca         1 9JQ       0.090100
      4 C15         -0.6920     0.0000     1.2100 ca         1 9JQ      -0.088000
      5 C13          1.3850     0.0010     2.4030 ca         1 9JQ      -0.110000
      6 C11         -2.0930     0.0180    -3.6550 ca         1 9JQ      -0.208300
      7 C12         -2.8210     0.0180    -2.4780 ca         1 9JQ      -0.065000
      8 C10         -0.7010     0.0110    -3.5960 ca         1 9JQ       0.484200
      9 C01          0.3270     1.2170    -5.4180 ca         1 9JQ       0.081600
     10 C02         -0.0210     2.4240    -4.8240 ca         1 9JQ      -0.169000
     11 C03          0.2700     3.6160    -5.4580 ca         1 9JQ      -0.068000
     12 C04          0.9090     3.6120    -6.6850 ca         1 9JQ       0.018900
     13 F01          1.1920     4.7800    -7.3030 f          1 9JQ      -0.125900
     14 C05          1.2600     2.4090    -7.2830 ca         1 9JQ       0.144100
     15 O01          1.8880     2.4050    -8.4880 oh         1 9JQ      -0.491100
     16 C06          0.9690     1.2110    -6.6490 ca         1 9JQ      -0.210000
     17 N01          0.0370     0.0100    -4.7740 nh         1 9JQ      -0.339700
     18 C07          0.5110    -1.2550    -5.3400 c3         1 9JQ       0.208100
     19 C08         -2.1350     0.0120    -1.2730 ca         1 9JQ      -0.208300
     20 C09         -0.7430     0.0060    -1.2830 cp         1 9JQ       0.440800
     21 N02         -0.0760     0.0060    -2.4310 nb         1 9JQ      -0.547000
     22 C14          0.0020     0.0000     2.4030 ca         1 9JQ      -0.097000
     23 F02          2.0730    -0.0010    -1.1680 f          1 9JQ      -0.106900
     24 O02          3.4430    -0.0000     1.2110 oh         1 9JQ      -0.485100
     25 H1          -1.7750     0.0000     1.2140 ha         1 9JQ       0.114000
     26 H2           1.9250     0.0010     3.3420 ha         1 9JQ       0.117000
     27 H3          -2.6000     0.0220    -4.6120 ha         1 9JQ       0.124000
     28 H4          -3.9040     0.0230    -2.4980 ha         1 9JQ       0.112000
     29 H5          -0.5210     2.4290    -3.8630 ha         1 9JQ       0.120000
     30 H6          -0.0030     4.5560    -4.9930 ha         1 9JQ       0.115000
     31 H7           2.8180     2.3300    -8.3580 ho         1 9JQ       0.405000
     32 H8           1.2410     0.2710    -7.1140 ha         1 9JQ       0.129000
     33 H9           0.0780    -1.3960    -6.3220 h1         1 9JQ       0.008700
     34 H10          1.5910    -1.2310    -5.4210 h1         1 9JQ       0.008700
     35 H11          0.2160    -2.0720    -4.6930 h1         1 9JQ       0.008700
     36 H12         -2.6760     0.0110    -0.3340 ha         1 9JQ       0.123000
     37 H13         -0.5380     0.0010     3.3420 ha         1 9JQ       0.109000
     38 H14          3.7570    -0.8850     1.2960 ho         1 9JQ       0.405000
@<TRIPOS>BOND
     1     1     2 ar  
     2     1     4 ar  
     3     1    20 1   
     4     2     3 ar  
     5     2    23 1   
     6     3     5 ar  
     7     3    24 1   
     8     4    22 ar  
     9     4    25 1   
    10     5    22 ar  
    11     5    26 1   
    12     6     7 ar  
    13     6     8 ar  
    14     6    27 1   
    15     7    19 ar  
    16     7    28 1   
    17     8    17 1   
    18     8    21 ar  
    19     9    10 ar  
    20     9    16 ar  
    21     9    17 1   
    22    10    11 ar  
    23    10    29 1   
    24    11    12 ar  
    25    11    30 1   
    26    12    13 1   
    27    12    14 ar  
    28    14    15 1   
    29    14    16 ar  
    30    15    31 1   
    31    16    32 1   
    32    17    18 1   
    33    18    33 1   
    34    18    34 1   
    35    18    35 1   
    36    19    20 ar  
    37    19    36 1   
    38    20    21 ar  
    39    22    37 1   
    40    24    38 1   
@<TRIPOS>SUBSTRUCTURE
     1 9JQ         1 TEMP              0 ****  ****    0 ROOT
