@<TRIPOS>MOLECULE
molecule
   42    44     1     0     0
SMALL
bcc


@<TRIPOS>ATOM
      1 C4           0.0000     0.0000     0.0000 ca         1 9JS      -0.178000
      2 C14         -8.8300    -2.6310    -3.6680 ca         1 9JS      -0.239600
      3 C5           1.3850     0.0000     0.0000 ca         1 9JS       0.131100
      4 C6           2.0790     0.0000     1.2020 ca         1 9JS      -0.101300
      5 C11         -7.2030    -1.5610    -1.6970 ca         1 9JS       0.265600
      6 C7           3.5860     0.0000     1.2010 c3         1 9JS      -0.039800
      7 C8          -2.7900    -0.6700     0.2180 cc         1 9JS       0.577200
      8 C9          -5.0060    -1.2040    -0.7710 cd         1 9JS       0.497200
      9 C10         -4.1910    -0.5650     0.1800 c          1 9JS       0.301500
     10 C12         -8.4730    -2.0290    -1.3710 ca         1 9JS      -0.160000
     11 C13         -9.2830    -2.5610    -2.3470 ca         1 9JS      -0.067000
     12 N2          -2.1220    -1.3980    -0.6540 nd         1 9JS      -0.671200
     13 C3          -0.6920     0.0040     1.2050 ca         1 9JS       0.146600
     14 N3          -4.5050    -1.9750    -1.7120 nc         1 9JS      -0.657200
     15 C1           1.3900    -0.0000     2.4000 ca         1 9JS      -0.088000
     16 C2           0.0090     0.0040     2.4050 ca         1 9JS      -0.165000
     17 O1           2.0650     0.0000    -1.1780 oh         1 9JS      -0.507100
     18 S1          -2.9460    -2.1540    -1.7530 ss         1 9JS       0.670000
     19 O2          -4.7360     0.1270     1.0290 o          1 9JS      -0.550100
     20 N4          -6.3850    -1.0250    -0.7070 nu         1 9JS      -0.695600
     21 C15         -7.5530    -2.1650    -3.9920 ca         1 9JS      -0.067000
     22 C16         -6.7470    -1.6340    -3.0100 ca         1 9JS      -0.160000
     23 O3          -9.3000    -3.2650    -5.8640 o          1 9JS      -0.437100
     24 N5         -10.9290    -3.6500    -4.4040 nz         1 9JS      -0.675400
     25 H3          -0.5430     0.0000    -0.9380 ha         1 9JS       0.151000
     26 H5           3.9470     0.9110     0.7390 hc         1 9JS       0.050033
     27 H6           3.9470    -0.8550     0.6420 hc         1 9JS       0.050033
     28 H7           3.9480    -0.0560     2.2200 hc         1 9JS       0.050033
     29 H10         -8.8230    -1.9760    -0.3470 ha         1 9JS       0.166000
     30 H11        -10.1690    -2.8450    -1.7920 ha         1 9JS       0.158000
     31 H8          -2.5840     0.4650     1.9500 hn         1 9JS       0.480800
     32 H1           1.9340    -0.0000     3.3360 ha         1 9JS       0.146000
     33 H2          -0.5290     0.0060     3.3460 ha         1 9JS       0.136000
     34 H4           1.8160     0.7560    -1.6840 ho         1 9JS       0.421000
     35 H9          -6.7850    -0.4790     0.0310 hn         1 9JS       0.488800
     36 H12         -7.1780    -2.2710    -5.0020 ha         1 9JS       0.158000
     37 H13         -6.1470    -0.9130    -3.5530 ha         1 9JS       0.166000
     38 H14        -11.3780    -3.9950    -5.2290 hn         1 9JS       0.474467
     39 H15        -10.8430    -4.3900    -3.7360 hn         1 9JS       0.474467
     40 N1          -2.0880     0.0090     1.2090 nu         1 9JS      -0.681600
     41 H53        -11.4760    -2.9090    -4.0120 hn         1 9JS       0.474467
     42 C17         -9.6970    -3.2010    -4.7170 c          1 9JS       0.506700
@<TRIPOS>BOND
     1     6     4 1
     2     4    15 ar
     3     4     3 ar
     4    15    16 ar
     5    16    13 ar
     6     3    17 1
     7     3     1 ar
     8    18    12 1
     9    18    14 1
    10    12     7 2
    11    13     1 ar
    12    13    40 1
    13    40     7 1
    14     7     9 1
    15    14     8 2
    16     8     9 1
    17     8    20 1
    18     9    19 2
    19    10    11 ar
    20    10     5 ar
    21    11     2 ar
    22    24    42 1
    23    20     5 1
    24     5    22 ar
    25     2    42 1
    26     2    21 ar
    27    42    23 2
    28    22    21 ar
    29     1    25 1
    30     6    26 1
    31     6    27 1
    32     6    28 1
    33    10    29 1
    34    11    30 1
    35    40    31 1
    36    15    32 1
    37    16    33 1
    38    17    34 1
    39    20    35 1
    40    21    36 1
    41    22    37 1
    42    24    38 1
    43    24    39 1
    44    41    24 1
@<TRIPOS>SUBSTRUCTURE
     1 9JS         1 TEMP              0 ****  ****    0 ROOT
