@<TRIPOS>MOLECULE
9JS
   42    44     1     0     0
SMALL
bcc


@<TRIPOS>ATOM
      1 C4           0.0000     0.0000     0.0000 ca         1 9JS      -0.159000
      2 C14         -8.8300    -2.6310    -3.6680 ca         1 9JS      -0.259600
      3 C5           1.3850     0.0000     0.0000 ca         1 9JS       0.153100
      4 C6           2.0790     0.0000     1.2020 ca         1 9JS      -0.107300
      5 C11         -7.2030    -1.5610    -1.6970 ca         1 9JS       0.102600
      6 C7           3.5860     0.0000     1.2010 c3         1 9JS       0.071200
      7 C8          -2.7900    -0.6700     0.2180 cc         1 9JS       0.377200
      8 C9          -5.0060    -1.2040    -0.7710 cc         1 9JS       0.289200
      9 C10         -4.1910    -0.5650     0.1800 c          1 9JS       0.369500
     10 C12         -8.4730    -2.0290    -1.3710 ca         1 9JS      -0.136500
     11 C13         -9.2830    -2.5610    -2.3470 ca         1 9JS      -0.032000
     12 N2          -2.1220    -1.3980    -0.6540 nd         1 9JS      -0.534200
     13 C3          -0.6920     0.0040     1.2050 ca         1 9JS      -0.030400
     14 N3          -4.5050    -1.9750    -1.7120 nd         1 9JS      -0.483200
     15 C1           1.3900    -0.0000     2.4000 ca         1 9JS      -0.057000
     16 C2           0.0090     0.0040     2.4050 ca         1 9JS      -0.133000
     17 O1           2.0650     0.0000    -1.1780 oh         1 9JS      -0.484100
     18 S1          -2.9460    -2.1540    -1.7530 ss         1 9JS       0.396000
     19 O2          -4.7360     0.1270     1.0290 o          1 9JS      -0.586100
     20 N4          -6.3850    -1.0250    -0.7070 nu         1 9JS      -0.205600
     21 C15         -7.5530    -2.1650    -3.9920 ca         1 9JS      -0.032000
     22 C16         -6.7470    -1.6340    -3.0100 ca         1 9JS      -0.136500
     23 O3          -9.3000    -3.2650    -5.8640 o          1 9JS      -0.453100
     24 N5         -10.9290    -3.6500    -4.4040 nz         1 9JS       0.204600
     25 H3          -0.5430     0.0000    -0.9380 ha         1 9JS       0.136000
     26 H5           3.9470     0.9110     0.7390 hc         1 9JS       0.013367
     27 H6           3.9470    -0.8550     0.6420 hc         1 9JS       0.013367
     28 H7           3.9480    -0.0560     2.2200 hc         1 9JS       0.013367
     29 H10         -8.8230    -1.9760    -0.3470 ha         1 9JS       0.136000
     30 H11        -10.1690    -2.8450    -1.7920 ha         1 9JS       0.126000
     31 H8          -2.5840     0.4650     1.9500 hn         1 9JS       0.305800
     32 H1           1.9340    -0.0000     3.3360 ha         1 9JS       0.115000
     33 H2          -0.5290     0.0060     3.3460 ha         1 9JS       0.110000
     34 H4           1.8160     0.7560    -1.6840 ho         1 9JS       0.404000
     35 H9          -6.7850    -0.4790     0.0310 hn         1 9JS       0.315800
     36 H12         -7.1780    -2.2710    -5.0020 ha         1 9JS       0.126000
     37 H13         -6.1470    -0.9130    -3.5530 ha         1 9JS       0.136000
     38 H14        -11.3780    -3.9950    -5.2290 hn         1 9JS       0.242133
     39 H15        -10.8430    -4.3900    -3.7360 hn         1 9JS       0.242133
     40 N1          -2.0880     0.0090     1.2090 nu         1 9JS      -0.167600
     41 H53        -11.4760    -2.9090    -4.0120 hn         1 9JS       0.242133
     42 C17         -9.6970    -3.2010    -4.7170 c          1 9JS       0.354700
@<TRIPOS>BOND
     1     1     3 ar  
     2     1    13 ar  
     3     1    25 1   
     4     2    11 ar  
     5     2    21 ar  
     6     2    42 1   
     7     3     4 ar  
     8     3    17 1   
     9     4     6 1   
    10     4    15 ar  
    11     5    10 ar  
    12     5    20 1   
    13     5    22 ar  
    14     6    26 1   
    15     6    27 1   
    16     6    28 1   
    17     7     9 1   
    18     7    12 2   
    19     7    40 1   
    20     8     9 1   
    21     8    14 2   
    22     8    20 1   
    23     9    19 2   
    24    10    11 ar  
    25    10    29 1   
    26    11    30 1   
    27    12    18 1   
    28    13    16 ar  
    29    13    40 1   
    30    14    18 1   
    31    15    16 ar  
    32    15    32 1   
    33    16    33 1   
    34    17    34 1   
    35    20    35 1   
    36    21    22 ar  
    37    21    36 1   
    38    22    37 1   
    39    23    42 2   
    40    24    38 1   
    41    24    39 1   
    42    24    41 1   
    43    24    42 1   
    44    31    40 1   
@<TRIPOS>SUBSTRUCTURE
     1 9JS         1 TEMP              0 ****  ****    0 ROOT
