@<TRIPOS>MOLECULE
molecule
   27    28     1     0     0
SMALL
bcc


@<TRIPOS>ATOM
      1 C11          0.0000     0.0000     0.0000 ca         1 9JT       0.059600
      2 C12          1.3900     0.0000     0.0000 ca         1 9JT      -0.146000
      3 C13          2.0790     0.0000     1.1970 ca         1 9JT      -0.111000
      4 C14          1.3880    -0.0000     2.3940 ca         1 9JT      -0.146000
      5 C15          0.0050     0.0000     2.3970 ca         1 9JT      -0.111000
      6 O09         -2.2940     1.2970    -0.3690 o          1 9JT      -0.547100
      7 C08         -1.8830     0.6400    -1.3050 c          1 9JT       0.660700
      8 C07         -2.6790     0.5420    -2.5460 ca         1 9JT      -0.124600
      9 C06         -2.2120    -0.2180    -3.6200 ca         1 9JT      -0.103000
     10 C05         -2.9640    -0.3090    -4.7740 ca         1 9JT      -0.132000
     11 C04         -4.1760     0.3500    -4.8680 ca         1 9JT      -0.103000
     12 C03         -4.6440     1.1050    -3.8070 ca         1 9JT      -0.128000
     13 C02         -3.9040     1.2040    -2.6470 ca         1 9JT       0.168900
     14 SE1         -4.5730     2.2670    -1.1430 sh         1 9JT      -0.394700
     15 N10         -0.7000    -0.0010    -1.2100 ns         1 9JT      -0.479100
     16 C16         -0.6910    -0.0050     1.2050 ca         1 9JT      -0.146000
     17 H1           1.9320     0.0000    -0.9380 ha         1 9JT       0.144500
     18 H2           3.1620    -0.0000     1.1980 ha         1 9JT       0.131500
     19 H3           1.9310     0.0020     3.3310 ha         1 9JT       0.129000
     20 H4          -0.5340    -0.0020     3.3370 ha         1 9JT       0.131500
     21 H5          -1.2630    -0.7340    -3.5480 ha         1 9JT       0.131000
     22 H6          -2.6030    -0.8980    -5.6090 ha         1 9JT       0.137000
     23 H7          -4.7610     0.2750    -5.7760 ha         1 9JT       0.138000
     24 H8          -5.5950     1.6180    -3.8870 ha         1 9JT       0.144000
     25 H9          -4.9020     3.5960    -1.6010 hs         1 9JT       0.230800
     26 H10         -0.3230    -0.4760    -2.0060 hn         1 9JT       0.320500
     27 H11         -1.7740    -0.0050     1.2080 ha         1 9JT       0.144500
@<TRIPOS>BOND
     1    10    11 ar
     2    10     9 ar
     3    11    12 ar
     4     9     8 ar
     5    12    13 ar
     6     8    13 ar
     7     8     7 1
     8    16     5 ar
     9    16     1 ar
    10    13    14 1
    11    15     7 1
    12    15     1 1
    13     5     4 ar
    14     7     6 2
    15     1     2 ar
    16     4     3 ar
    17     2     3 ar
    18     2    17 1
    19     3    18 1
    20     4    19 1
    21     5    20 1
    22     9    21 1
    23    10    22 1
    24    11    23 1
    25    12    24 1
    26    14    25 1
    27    15    26 1
    28    16    27 1
@<TRIPOS>SUBSTRUCTURE
     1 9JT         1 TEMP              0 ****  ****    0 ROOT
