@<TRIPOS>MOLECULE
9JT
   27    28     1     0     0
SMALL
bcc


@<TRIPOS>ATOM
      1 C11          0.0000     0.0000     0.0000 ca         1 9JT      -0.085400
      2 C12          1.3900     0.0000     0.0000 ca         1 9JT      -0.120000
      3 C13          2.0790     0.0000     1.1970 ca         1 9JT      -0.081500
      4 C14          1.3880    -0.0000     2.3940 ca         1 9JT      -0.117000
      5 C15          0.0050     0.0000     2.3970 ca         1 9JT      -0.081500
      6 O09         -2.2940     1.2970    -0.3690 o          1 9JT      -0.580100
      7 C08         -1.8830     0.6400    -1.3050 c          1 9JT       0.564700
      8 C07         -2.6790     0.5420    -2.5460 ca         1 9JT      -0.127600
      9 C06         -2.2120    -0.2180    -3.6200 ca         1 9JT      -0.084000
     10 C05         -2.9640    -0.3090    -4.7740 ca         1 9JT      -0.101000
     11 C04         -4.1760     0.3500    -4.8680 ca         1 9JT      -0.076000
     12 C03         -4.6440     1.1050    -3.8070 ca         1 9JT      -0.103000
     13 C02         -3.9040     1.2040    -2.6470 ca         1 9JT       0.184900
     14 SE1         -4.5730     2.2670    -1.1430 sh         1 9JT      -0.394700
     15 N10         -0.7000    -0.0010    -1.2100 ns         1 9JT      -0.044100
     16 C16         -0.6910    -0.0050     1.2050 ca         1 9JT      -0.120000
     17 H1           1.9320     0.0000    -0.9380 ha         1 9JT       0.122000
     18 H2           3.1620    -0.0000     1.1980 ha         1 9JT       0.102500
     19 H3           1.9310     0.0020     3.3310 ha         1 9JT       0.102000
     20 H4          -0.5340    -0.0020     3.3370 ha         1 9JT       0.102500
     21 H5          -1.2630    -0.7340    -3.5480 ha         1 9JT       0.106000
     22 H6          -2.6030    -0.8980    -5.6090 ha         1 9JT       0.108000
     23 H7          -4.7610     0.2750    -5.7760 ha         1 9JT       0.107000
     24 H8          -5.5950     1.6180    -3.8870 ha         1 9JT       0.116000
     25 H9          -4.9020     3.5960    -1.6010 hs         1 9JT       0.208800
     26 H10         -0.3230    -0.4760    -2.0060 hn         1 9JT       0.169500
     27 H11         -1.7740    -0.0050     1.2080 ha         1 9JT       0.122000
@<TRIPOS>BOND
     1     1     2 ar  
     2     1    15 1   
     3     1    16 ar  
     4     2     3 ar  
     5     2    17 1   
     6     3     4 ar  
     7     3    18 1   
     8     4     5 ar  
     9     4    19 1   
    10     5    16 ar  
    11     5    20 1   
    12     6     7 2   
    13     7     8 1   
    14     7    15 1   
    15     8     9 ar  
    16     8    13 ar  
    17     9    10 ar  
    18     9    21 1   
    19    10    11 ar  
    20    10    22 1   
    21    11    12 ar  
    22    11    23 1   
    23    12    13 ar  
    24    12    24 1   
    25    13    14 1   
    26    14    25 1   
    27    15    26 1   
    28    16    27 1   
@<TRIPOS>SUBSTRUCTURE
     1 9JT         1 TEMP              0 ****  ****    0 ROOT
