@<TRIPOS>MOLECULE
9JU
   66    70     1     0     0
SMALL
bcc


@<TRIPOS>ATOM
      1 CAW          0.0000     0.0000     0.0000 c3         1 9JU      -0.042400
      2 CAX          1.5300     0.0000     0.0000 c3         1 9JU      -0.032700
      3 CBE          2.0400     0.0000     1.4410 c3         1 9JU      -0.018733
      4 CAY          2.0390    -1.2500    -0.7220 c3         1 9JU      -0.018733
      5 CAZ          1.5290    -2.4990     0.0000 c3         1 9JU      -0.032700
      6 CBA          0.0000    -2.4980     0.0000 c3         1 9JU      -0.042400
      7 CBB          2.0400    -2.4980     1.4420 c3         1 9JU      -0.018733
      8 CBC          1.5300    -1.2490     2.1640 c3         1 9JU      -0.032700
      9 CBD          0.0010    -1.2490     2.1640 c3         1 9JU      -0.042400
     10 CAV         -0.5100    -1.2480     0.7210 c3         1 9JU       0.022400
     11 NAT         -1.9750    -1.2480     0.7220 ns         1 9JU      -0.173900
     12 CAM         -2.6490    -2.2590     1.3050 c          1 9JU       0.532600
     13 OAU         -2.0410    -3.1710     1.8330 o          1 9JU      -0.664100
     14 CAJ         -4.1260    -2.2590     1.3070 cc         1 9JU       0.239800
     15 CAK         -4.9620    -3.2440     1.8750 cc         1 9JU      -0.172600
     16 CAL         -4.5370    -4.4960     2.5980 c3         1 9JU       0.088200
     17 NAI         -4.9080    -1.3370     0.7810 nd         1 9JU      -0.640800
     18 NAH         -6.1430    -1.6420     0.9560 na         1 9JU       0.623400
     19 CAN         -7.2800    -0.8390     0.4980 c3         1 9JU      -0.063700
     20 CAO         -7.6770    -1.2750    -0.9140 c3         1 9JU      -0.043400
     21 CAP         -8.8640    -0.4360    -1.3910 c3         1 9JU      -0.020400
     22 CAQ         -9.2610    -0.8710    -2.8030 c3         1 9JU      -0.038400
     23 CAR        -10.4480    -0.0330    -3.2810 c3         1 9JU       0.226400
     24 OAS        -10.8190    -0.4390    -4.5990 oh         1 9JU      -0.592800
     25 CAG         -6.2390    -2.8220     1.6320 cd         1 9JU      -0.285300
     26 CAE         -7.4870    -3.5110     2.0300 ca         1 9JU       0.009000
     27 CAD         -7.6200    -4.8860     1.8380 ca         1 9JU      -0.102000
     28 CAC         -8.7860    -5.5230     2.2120 ca         1 9JU      -0.094500
     29 CAB         -9.8230    -4.8000     2.7750 ca         1 9JU      -0.100000
     30 CAA         -9.6980    -3.4350     2.9670 ca         1 9JU      -0.094500
     31 CAF         -8.5350    -2.7890     2.6040 ca         1 9JU      -0.102000
     32 H1          -0.3610    -0.0000    -1.0210 hc         1 9JU       0.031700
     33 H2          -0.3610     0.8850     0.5100 hc         1 9JU       0.031700
     34 H3           1.8910     0.8840    -0.5110 hc         1 9JU       0.023033
     35 H4           3.1230    -0.0000     1.4410 hc         1 9JU       0.015367
     36 H5           1.6790     0.8850     1.9520 hc         1 9JU       0.015367
     37 H6           1.6770    -1.2490    -1.7430 hc         1 9JU       0.015367
     38 H7           3.1230    -1.2500    -0.7230 hc         1 9JU       0.015367
     39 H8           1.8900    -3.3830    -0.5100 hc         1 9JU       0.023033
     40 H9          -0.3610    -2.4990    -1.0210 hc         1 9JU       0.031700
     41 H10         -0.3610    -3.3830     0.5110 hc         1 9JU       0.031700
     42 H11          3.1230    -2.4970     1.4420 hc         1 9JU       0.015367
     43 H12          1.6800    -3.3820     1.9530 hc         1 9JU       0.015367
     44 H13          1.8920    -1.2490     3.1850 hc         1 9JU       0.023033
     45 H14         -0.3600    -0.3650     2.6750 hc         1 9JU       0.031700
     46 H15         -0.3600    -2.1340     2.6740 hc         1 9JU       0.031700
     47 H16         -2.4750    -0.4970     0.2900 hn         1 9JU       0.185500
     48 H17         -4.2130    -5.2370     1.8770 hc         1 9JU       0.016367
     49 H18         -3.7200    -4.2650     3.2710 hc         1 9JU       0.016367
     50 H19         -5.3730    -4.8870     3.1660 hc         1 9JU       0.016367
     51 H20         -8.1170    -0.9840     1.1690 h1         1 9JU       0.048700
     52 H21         -7.0020     0.2080     0.4880 h1         1 9JU       0.048700
     53 H22         -6.8390    -1.1290    -1.5850 hc         1 9JU       0.031200
     54 H23         -7.9540    -2.3220    -0.9040 hc         1 9JU       0.031200
     55 H24         -8.5870     0.6110    -1.4000 hc         1 9JU       0.015200
     56 H25         -9.7020    -0.5810    -0.7200 hc         1 9JU       0.015200
     57 H26         -9.5380    -1.9180    -2.7930 hc         1 9JU       0.026700
     58 H27         -8.4230    -0.7250    -3.4740 hc         1 9JU       0.026700
     59 H28        -10.1710     1.0140    -3.2900 h1         1 9JU      -0.016800
     60 H29        -11.2860    -0.1790    -2.6100 h1         1 9JU      -0.016800
     61 H30        -11.5510     0.0780    -4.8930 ho         1 9JU       0.390000
     62 H31         -6.8090    -5.4540     1.3980 ha         1 9JU       0.113000
     63 H32         -8.8900    -6.5910     2.0640 ha         1 9JU       0.104000
     64 H33        -10.7370    -5.3040     3.0640 ha         1 9JU       0.104000
     65 H34        -10.5120    -2.8750     3.4100 ha         1 9JU       0.104000
     66 H35         -8.4380    -1.7200     2.7550 ha         1 9JU       0.113000
@<TRIPOS>BOND
     1     1     2 1   
     2     1    10 1   
     3     1    32 1   
     4     1    33 1   
     5     2     3 1   
     6     2     4 1   
     7     2    34 1   
     8     3     8 1   
     9     3    35 1   
    10     3    36 1   
    11     4     5 1   
    12     4    37 1   
    13     4    38 1   
    14     5     6 1   
    15     5     7 1   
    16     5    39 1   
    17     6    10 1   
    18     6    40 1   
    19     6    41 1   
    20     7     8 1   
    21     7    42 1   
    22     7    43 1   
    23     8     9 1   
    24     8    44 1   
    25     9    10 1   
    26     9    45 1   
    27     9    46 1   
    28    10    11 1   
    29    11    12 1   
    30    11    47 1   
    31    12    13 2   
    32    12    14 1   
    33    14    15 1   
    34    14    17 2   
    35    15    16 1   
    36    15    25 2   
    37    16    48 1   
    38    16    49 1   
    39    16    50 1   
    40    17    18 1   
    41    18    19 1   
    42    18    25 1   
    43    19    20 1   
    44    19    51 1   
    45    19    52 1   
    46    20    21 1   
    47    20    53 1   
    48    20    54 1   
    49    21    22 1   
    50    21    55 1   
    51    21    56 1   
    52    22    23 1   
    53    22    57 1   
    54    22    58 1   
    55    23    24 1   
    56    23    59 1   
    57    23    60 1   
    58    24    61 1   
    59    25    26 1   
    60    26    27 ar  
    61    26    31 ar  
    62    27    28 ar  
    63    27    62 1   
    64    28    29 ar  
    65    28    63 1   
    66    29    30 ar  
    67    29    64 1   
    68    30    31 ar  
    69    30    65 1   
    70    31    66 1   
@<TRIPOS>SUBSTRUCTURE
     1 9JU         1 TEMP              0 ****  ****    0 ROOT
