@<TRIPOS>MOLECULE
molecule
   37    39     1     0     0
SMALL
bcc


@<TRIPOS>ATOM
      1 C01          0.0000     0.0000     0.0000 c2         1 9JW      -0.190000
      2 C02          1.3390     0.0000     0.0000 ce         1 9JW      -0.128000
      3 C03          2.0800     0.0000     1.2830 ca         1 9JW      -0.044800
      4 C04          2.8700    -1.0930     1.6340 ca         1 9JW      -0.072000
      5 C05          3.5610    -1.0900     2.8290 ca         1 9JW      -0.156000
      6 C06          3.4700    -0.0040     3.6830 ca         1 9JW       0.118900
      7 F07          4.1470    -0.0070     4.8520 f          1 9JW      -0.133900
      8 C08          2.6830     1.0890     3.3390 ca         1 9JW       0.063100
      9 O09          2.5970     2.1550     4.1790 oh         1 9JW      -0.511100
     10 C10          1.9930     1.0960     2.1390 ca         1 9JW      -0.124000
     11 C11          2.0800    -0.0020    -1.2850 ca         1 9JW       0.485100
     12 C12          1.3750    -0.0020    -2.4870 ca         1 9JW      -0.244300
     13 C13          2.0760    -0.0020    -3.6820 ca         1 9JW      -0.089000
     14 C14          3.4610    -0.0020    -3.6400 ca         1 9JW      -0.243300
     15 C15          4.1050    -0.0020    -2.4030 cp         1 9JW       0.484800
     16 C16          5.5870     0.0050    -2.3480 cp         1 9JW      -0.177500
     17 C17          6.3320     0.0050    -3.5270 ca         1 9JW      -0.099000
     18 C18          7.7100     0.0110    -3.4720 ca         1 9JW      -0.138000
     19 C19          8.3580     0.0170    -2.2500 ca         1 9JW      -0.122000
     20 C20          7.6280     0.0170    -1.0720 ca         1 9JW       0.058100
     21 O21          8.2700     0.0240     0.1270 oh         1 9JW      -0.506100
     22 C22          6.2400     0.0170    -1.1160 ca         1 9JW       0.154900
     23 F23          5.5260     0.0230     0.0310 f          1 9JW      -0.099900
     24 N24          3.4060     0.0040    -1.2770 nb         1 9JW      -0.665000
     25 H1          -0.5420    -0.0010    -0.9380 ha         1 9JW       0.125000
     26 H2          -0.5420     0.0000     0.9380 ha         1 9JW       0.125000
     27 H3           2.9440    -1.9440     0.9680 ha         1 9JW       0.145000
     28 H4           4.1750    -1.9400     3.1010 ha         1 9JW       0.150000
     29 H5           3.1630     2.8440     3.8730 ho         1 9JW       0.419000
     30 H6           1.3800     1.9480     1.8710 ha         1 9JW       0.145000
     31 H7           0.2920    -0.0020    -2.4870 ha         1 9JW       0.143000
     32 H8           1.5520    -0.0030    -4.6300 ha         1 9JW       0.140000
     33 H9           4.0370    -0.0030    -4.5570 ha         1 9JW       0.140000
     34 H10          5.8280     0.0010    -4.4850 ha         1 9JW       0.139000
     35 H11          8.2860     0.0110    -4.3890 ha         1 9JW       0.139000
     36 H12          9.4410     0.0210    -2.2140 ha         1 9JW       0.147000
     37 H13          8.4900     0.9100     0.3600 ho         1 9JW       0.421000
@<TRIPOS>BOND
     1    18    17 ar
     2    18    19 ar
     3    17    16 ar
     4    19    20 ar
     5     1     2 2
     6    16    15 1
     7    16    22 ar
     8    15    24 ar
     9    15    14 ar
    10    24    11 ar
    11    14    13 ar
    12    11     2 1
    13    11    12 ar
    14    20    22 ar
    15    20    21 1
    16     2     3 1
    17    13    12 ar
    18    22    23 1
    19    10     3 ar
    20    10     8 ar
    21     3     4 ar
    22     9     8 1
    23     8     6 ar
    24     4     5 ar
    25     6     5 ar
    26     6     7 1
    27     1    25 1
    28     1    26 1
    29     4    27 1
    30     5    28 1
    31     9    29 1
    32    10    30 1
    33    12    31 1
    34    13    32 1
    35    14    33 1
    36    17    34 1
    37    18    35 1
    38    19    36 1
    39    21    37 1
@<TRIPOS>SUBSTRUCTURE
     1 9JW         1 TEMP              0 ****  ****    0 ROOT
