@<TRIPOS>MOLECULE
9JX
   55    59     1     0     0
SMALL
bcc


@<TRIPOS>ATOM
      1 C4           0.0000     0.0000     0.0000 ca         1 9JX      -0.083000
      2 C5          -2.8760     0.9330     0.4420 ca         1 9JX      -0.113000
      3 C6          -4.9510     0.0260     1.2210 ca         1 9JX      -0.154000
      4 C7           1.3920    -0.0000     2.3990 ca         1 9JX      -0.099000
      5 C8          -2.8770    -0.9170     1.9870 ca         1 9JX      -0.142000
      6 C10        -11.6080    -7.2330     8.3320 cc         1 9JX      -0.124400
      7 C13         -4.2630    -0.8990     1.9960 ca         1 9JX      -0.057400
      8 C15        -11.7060    -5.3710     6.7260 cc         1 9JX       0.376900
      9 C20         -9.1280    -4.2840     6.2380 c3         1 9JX       0.029500
     10 C21         -9.1050    -2.6250     3.8470 c3         1 9JX       0.132800
     11 C22         -8.1100    -4.4450     5.1040 c3         1 9JX       0.132800
     12 C24         -6.7840    -3.2170     3.4930 c3         1 9JX       0.121500
     13 C1           1.3810     0.0000     0.0000 ca         1 9JX      -0.102000
     14 C2           2.0750     0.0000     1.1970 ca         1 9JX      -0.091000
     15 C3          -4.2570     0.9370     0.4480 ca         1 9JX      -0.074000
     16 C9         -12.5760    -7.2900     7.4040 cd         1 9JX       0.336200
     17 C11         -2.1780     0.0060     1.2120 cp         1 9JX      -0.009000
     18 C12         -0.6950    -0.0000     1.2070 cp         1 9JX      -0.028000
     19 C14          0.0100    -0.0060     2.4110 ca         1 9JX      -0.023600
     20 C16         -4.4010    -2.8330     3.4550 c          1 9JX       0.623500
     21 C18         -5.4610    -3.6370     4.1740 c3         1 9JX      -0.121400
     22 C19        -10.1630    -2.3900     4.9290 c3         1 9JX       0.029500
     23 C23         -6.4270    -1.8170     2.9500 c3         1 9JX       0.023000
     24 N25        -12.6140    -6.2940     6.5600 nd         1 9JX      -0.475000
     25 N26         -4.9690    -1.8240     2.7730 n          1 9JX       0.014000
     26 N27        -10.3310    -3.6320     5.6970 n          1 9JX      -0.148800
     27 N28         -7.8780    -3.1410     4.4700 n3         1 9JX      -0.530600
     28 O30        -12.5320    -3.6380     5.4010 o          1 9JX      -0.609100
     29 S31        -10.6930    -5.8060     8.0980 ss         1 9JX      -0.281300
     30 Cl1         -0.8460    -0.0070     3.9210 cl         1 9JX      -0.011400
     31 H1          -0.5420    -0.0000    -0.9380 ha         1 9JX       0.111000
     32 H2          -2.3360     1.6510    -0.1640 ha         1 9JX       0.110000
     33 H3          -6.0340     0.0360     1.2260 ha         1 9JX       0.108000
     34 H4           1.9400    -0.0030     3.3330 ha         1 9JX       0.114000
     35 H5          -2.3390    -1.6380     2.5890 ha         1 9JX       0.180000
     36 H7          -8.7030    -3.6690     7.0220 h1         1 9JX       0.046700
     37 H8          -9.3890    -5.2580     6.6330 h1         1 9JX       0.046700
     38 H9          -8.8880    -1.6900     3.3450 h1         1 9JX       0.021950
     39 H10         -9.4760    -3.3480     3.1310 h1         1 9JX       0.021950
     40 H11         -7.1780    -4.8210     5.5070 h1         1 9JX       0.021950
     41 H12         -8.4980    -5.1400     4.3680 h1         1 9JX       0.021950
     42 H13         -7.0280    -3.8920     2.6810 h1         1 9JX       0.027700
     43 H14          1.9210     0.0000    -0.9390 ha         1 9JX       0.104000
     44 H15          3.1590     0.0020     1.1920 ha         1 9JX       0.104000
     45 H16         -4.7980     1.6580    -0.1540 ha         1 9JX       0.103000
     46 H17        -13.2820    -8.1110     7.3580 h4         1 9JX       0.004100
     47 H18         -5.4810    -3.3810     5.2270 hc         1 9JX       0.053200
     48 H19         -5.2870    -4.6980     4.0390 hc         1 9JX       0.053200
     49 H20        -11.1040    -2.1200     4.4650 h1         1 9JX       0.046700
     50 H21         -9.8370    -1.5960     5.5900 h1         1 9JX       0.046700
     51 H22         -6.9170    -1.6490     1.9990 h1         1 9JX       0.035200
     52 H23         -6.7130    -1.0550     3.6650 h1         1 9JX       0.035200
     53 O29         -3.2110    -3.0650     3.4890 o          1 9JX      -0.651500
     54 C17        -11.5540    -4.1610     5.9000 c          1 9JX       0.530600
     55 H6         -11.4340    -7.9720     9.1040 h4         1 9JX       0.162000
@<TRIPOS>BOND
     1     1    13 ar  
     2     1    18 ar  
     3     1    31 1   
     4     2    15 ar  
     5     2    17 ar  
     6     2    32 1   
     7     3     7 ar  
     8     3    15 ar  
     9     3    33 1   
    10     4    14 ar  
    11     4    19 ar  
    12     4    34 1   
    13     5     7 ar  
    14     5    17 ar  
    15     5    35 1   
    16     6    16 2   
    17     6    29 1   
    18     6    55 1   
    19     7    25 1   
    20     8    24 2   
    21     8    29 1   
    22     8    54 1   
    23     9    11 1   
    24     9    26 1   
    25     9    36 1   
    26     9    37 1   
    27    10    22 1   
    28    10    27 1   
    29    10    38 1   
    30    10    39 1   
    31    11    27 1   
    32    11    40 1   
    33    11    41 1   
    34    12    21 1   
    35    12    23 1   
    36    12    27 1   
    37    12    42 1   
    38    13    14 ar  
    39    13    43 1   
    40    14    44 1   
    41    15    45 1   
    42    16    24 1   
    43    16    46 1   
    44    17    18 1   
    45    18    19 ar  
    46    19    30 1   
    47    20    21 1   
    48    20    25 1   
    49    20    53 2   
    50    21    47 1   
    51    21    48 1   
    52    22    26 1   
    53    22    49 1   
    54    22    50 1   
    55    23    25 1   
    56    23    51 1   
    57    23    52 1   
    58    26    54 1   
    59    28    54 2   
@<TRIPOS>SUBSTRUCTURE
     1 9JX         1 TEMP              0 ****  ****    0 ROOT
