@<TRIPOS>MOLECULE
molecule
   55    59     1     0     0
SMALL
bcc


@<TRIPOS>ATOM
      1 C4           0.0000     0.0000     0.0000 ca         1 9JX      -0.108000
      2 C5          -2.8760     0.9330     0.4420 ca         1 9JX      -0.138000
      3 C6          -4.9510     0.0260     1.2210 ca         1 9JX      -0.171000
      4 C7           1.3920    -0.0000     2.3990 ca         1 9JX      -0.122000
      5 C8          -2.8770    -0.9170     1.9870 ca         1 9JX      -0.137000
      6 C10        -11.6080    -7.2330     8.3320 cc         1 9JX      -0.205400
      7 C13         -4.2630    -0.8990     1.9960 ca         1 9JX       0.073600
      8 C15        -11.7060    -5.3710     6.7260 cc         1 9JX       0.400900
      9 C20         -9.1280    -4.2840     6.2380 c3         1 9JX       0.103500
     10 C21         -9.1050    -2.6250     3.8470 c3         1 9JX       0.144300
     11 C22         -8.1100    -4.4450     5.1040 c3         1 9JX       0.144300
     12 C24         -6.7840    -3.2170     3.4930 c3         1 9JX       0.151500
     13 C1           1.3810     0.0000     0.0000 ca         1 9JX      -0.130000
     14 C2           2.0750     0.0000     1.1970 ca         1 9JX      -0.119000
     15 C3          -4.2570     0.9370     0.4480 ca         1 9JX      -0.108000
     16 C9         -12.5760    -7.2900     7.4040 cd         1 9JX       0.353200
     17 C11         -2.1780     0.0060     1.2120 cp         1 9JX      -0.021000
     18 C12         -0.6950    -0.0000     1.2070 cp         1 9JX      -0.029000
     19 C14          0.0100    -0.0060     2.4110 ca         1 9JX       0.041400
     20 C16         -4.4010    -2.8330     3.4550 c          1 9JX       0.706500
     21 C18         -5.4610    -3.6370     4.1740 c3         1 9JX      -0.167400
     22 C19        -10.1630    -2.3900     4.9290 c3         1 9JX       0.103500
     23 C23         -6.4270    -1.8170     2.9500 c3         1 9JX       0.097000
     24 N25        -12.6140    -6.2940     6.5600 nd         1 9JX      -0.606000
     25 N26         -4.9690    -1.8240     2.7730 n          1 9JX      -0.378000
     26 N27        -10.3310    -3.6320     5.6970 n          1 9JX      -0.491800
     27 N28         -7.8780    -3.1410     4.4700 n3         1 9JX      -0.725600
     28 O30        -12.5320    -3.6380     5.4010 o          1 9JX      -0.563100
     29 S31        -10.6930    -5.8060     8.0980 ss         1 9JX      -0.179300
     30 Cl1         -0.8460    -0.0070     3.9210 cl         1 9JX      -0.096400
     31 H1          -0.5420    -0.0000    -0.9380 ha         1 9JX       0.140000
     32 H2          -2.3360     1.6510    -0.1640 ha         1 9JX       0.134000
     33 H3          -6.0340     0.0360     1.2260 ha         1 9JX       0.127000
     34 H4           1.9400    -0.0030     3.3330 ha         1 9JX       0.144000
     35 H5          -2.3390    -1.6380     2.5890 ha         1 9JX       0.193000
     36 H7          -8.7030    -3.6690     7.0220 h1         1 9JX       0.068450
     37 H8          -9.3890    -5.2580     6.6330 h1         1 9JX       0.068450
     38 H9          -8.8880    -1.6900     3.3450 h1         1 9JX       0.047700
     39 H10         -9.4760    -3.3480     3.1310 h1         1 9JX       0.047700
     40 H11         -7.1780    -4.8210     5.5070 h1         1 9JX       0.047700
     41 H12         -8.4980    -5.1400     4.3680 h1         1 9JX       0.047700
     42 H13         -7.0280    -3.8920     2.6810 h1         1 9JX       0.048700
     43 H14          1.9210     0.0000    -0.9390 ha         1 9JX       0.134000
     44 H15          3.1590     0.0020     1.1920 ha         1 9JX       0.135000
     45 H16         -4.7980     1.6580    -0.1540 ha         1 9JX       0.132000
     46 H17        -13.2820    -8.1110     7.3580 h4         1 9JX       0.048100
     47 H18         -5.4810    -3.3810     5.2270 hc         1 9JX       0.086200
     48 H19         -5.2870    -4.6980     4.0390 hc         1 9JX       0.086200
     49 H20        -11.1040    -2.1200     4.4650 h1         1 9JX       0.068450
     50 H21         -9.8370    -1.5960     5.5900 h1         1 9JX       0.068450
     51 H22         -6.9170    -1.6490     1.9990 h1         1 9JX       0.062200
     52 H23         -6.7130    -1.0550     3.6650 h1         1 9JX       0.062200
     53 O29         -3.2110    -3.0650     3.4890 o          1 9JX      -0.611500
     54 C17        -11.5540    -4.1610     5.9000 c          1 9JX       0.600600
     55 H6         -11.4340    -7.9720     9.1040 h4         1 9JX       0.185000
@<TRIPOS>BOND
     1     6    16 2
     2     6    29 1
     3    16    24 1
     4    29     8 1
     5    24     8 2
     6     8    54 1
     7    54    28 2
     8    54    26 1
     9    22    26 1
    10    22    10 1
    11    26     9 1
    12    10    27 1
    13    13    14 ar
    14    13     1 ar
    15    14     4 ar
    16     9    11 1
    17    27    11 1
    18    27    12 1
    19     1    18 ar
    20     4    19 ar
    21    23    12 1
    22    23    25 1
    23    19    18 ar
    24    19    30 1
    25    18    17 1
    26    12    21 1
    27     5    17 ar
    28     5     7 ar
    29    17     2 ar
    30    25     7 1
    31    25    20 1
    32    21    20 1
    33     7     3 ar
    34     2    15 ar
    35    20    53 2
    36     3    15 ar
    37     1    31 1
    38     2    32 1
    39     3    33 1
    40     4    34 1
    41     5    35 1
    42     6    55 1
    43     9    36 1
    44     9    37 1
    45    10    38 1
    46    10    39 1
    47    11    40 1
    48    11    41 1
    49    12    42 1
    50    13    43 1
    51    14    44 1
    52    15    45 1
    53    16    46 1
    54    21    47 1
    55    21    48 1
    56    22    49 1
    57    22    50 1
    58    23    51 1
    59    23    52 1
@<TRIPOS>SUBSTRUCTURE
     1 9JX         1 TEMP              0 ****  ****    0 ROOT
