@<TRIPOS>MOLECULE
molecule
   75    78     1     0     0
SMALL
bcc


@<TRIPOS>ATOM
      1 O3           0.0000     0.0000     0.0000 o          1 9JZ      -0.599100
      2 C5           1.2130     0.0000     0.0000 c          1 9JZ       0.681100
      3 C4           1.9670     0.0000     1.3050 c3         1 9JZ       0.053700
      4 C12          2.1130    -1.4380     1.8100 c3         1 9JZ      -0.074700
      5 C18          2.8490    -1.4360     3.1500 c3         1 9JZ      -0.079900
      6 C17          2.9940    -2.8720     3.6550 c3         1 9JZ      -0.077400
      7 C16          3.7900    -3.6920     2.6370 c3         1 9JZ      -0.082400
      8 C15          3.0530    -3.6940     1.2970 c3         1 9JZ      -0.077400
      9 C14          2.9080    -2.2570     0.7920 c3         1 9JZ      -0.079900
     10 N2           1.2320     0.7920     2.2940 ns         1 9JZ      -0.569900
     11 C3           1.8880     1.3580     3.3260 c          1 9JZ       0.658100
     12 O2           3.0870     1.2110     3.4370 o          1 9JZ      -0.611100
     13 C2           1.1320     2.1740     4.3430 c3         1 9JZ       0.091500
     14 C13          0.4510     3.3540     3.6470 c3         1 9JZ      -0.081100
     15 N1           2.0650     2.6780     5.3590 n7         1 9JZ      -0.805200
     16 C1           1.3720     2.9440     6.6260 c3         1 9JZ       0.145100
     17 N3           1.8870    -0.0060    -1.1670 n          1 9JZ      -0.474800
     18 C9           3.3500    -0.1070    -1.3150 c3         1 9JZ       0.087000
     19 C8           3.6550     0.5350    -2.6910 c3         1 9JZ      -0.093400
     20 C7           2.4380     0.0680    -3.5300 c3         1 9JZ      -0.079700
     21 C28          2.1620     1.0440    -4.6740 c3         1 9JZ      -0.088100
     22 C6           1.2840     0.0820    -2.5050 c3         1 9JZ       0.047700
     23 C10          0.3760    -1.0990    -2.7360 c          1 9JZ       0.653100
     24 O1           0.4850    -2.0910    -2.0470 o          1 9JZ      -0.587100
     25 N4          -0.5570    -1.0530    -3.7070 ns         1 9JZ      -0.465100
     26 C11         -1.3090    -2.1890    -4.0090 ca         1 9JZ       0.113600
     27 C27         -0.7350    -3.4490    -3.9140 ca         1 9JZ      -0.150000
     28 C26         -1.4810    -4.5730    -4.2120 ca         1 9JZ      -0.088000
     29 C25         -2.8010    -4.4510    -4.6070 ca         1 9JZ      -0.166000
     30 C24         -3.3860    -3.2050    -4.7060 ca         1 9JZ      -0.063000
     31 C19         -2.6470    -2.0640    -4.4020 cp         1 9JZ      -0.188500
     32 C20         -3.2710    -0.7240    -4.5010 cp         1 9JZ       0.762500
     33 N6          -4.5540    -0.6290    -4.8240 nb         1 9JZ      -0.746500
     34 C23         -5.1410     0.5520    -4.9200 ca         1 9JZ       0.467200
     35 C22         -4.3990     1.6980    -4.6780 ca         1 9JZ      -0.394600
     36 C21         -3.0610     1.5630    -4.3430 ca         1 9JZ       0.467200
     37 N5          -2.5350     0.3530    -4.2580 nb         1 9JZ      -0.746500
     38 H4           2.9490     0.4310     1.1550 h1         1 9JZ       0.085700
     39 H12          1.1330    -1.8810     1.9400 hc         1 9JZ       0.070700
     40 H18          2.2840    -0.8570     3.8710 hc         1 9JZ       0.051450
     41 H18A         3.8320    -0.9990     3.0200 hc         1 9JZ       0.051450
     42 H17          2.0120    -3.3110     3.7810 hc         1 9JZ       0.041700
     43 H17A         3.5190    -2.8700     4.6030 hc         1 9JZ       0.041700
     44 H16          3.8900    -4.7100     2.9940 hc         1 9JZ       0.039200
     45 H16A         4.7710    -3.2510     2.5080 hc         1 9JZ       0.039200
     46 H15          3.6180    -4.2730     0.5770 hc         1 9JZ       0.041700
     47 H15A         2.0700    -4.1310     1.4270 hc         1 9JZ       0.041700
     48 H14          2.3840    -2.2600    -0.1560 hc         1 9JZ       0.051450
     49 H14A         3.8910    -1.8190     0.6660 hc         1 9JZ       0.051450
     50 HN2          0.2400     0.8970     2.2130 hn         1 9JZ       0.335500
     51 H2           0.3820     1.5540     4.8180 h1         1 9JZ       0.039700
     52 H13          1.1060     3.7470     2.8780 hc         1 9JZ       0.044367
     53 H13A        -0.4750     3.0200     3.1950 hc         1 9JZ       0.044367
     54 H13B         0.2400     4.1290     4.3730 hc         1 9JZ       0.044367
     55 HN1          2.7890     2.0030     5.5100 hn         1 9JZ       0.378800
     56 H1           0.5220     3.5910     6.4430 h1         1 9JZ       0.031700
     57 H1A          1.0290     2.0100     7.0540 h1         1 9JZ       0.031700
     58 H1B          2.0530     3.4290     7.3150 h1         1 9JZ       0.031700
     59 H9           3.8460     0.4450    -0.5250 h1         1 9JZ       0.059200
     60 H9A          3.6580    -1.1460    -1.3080 h1         1 9JZ       0.059200
     61 H8           3.6800     1.6160    -2.6150 hc         1 9JZ       0.060200
     62 H8A          4.5790     0.1460    -3.1010 hc         1 9JZ       0.060200
     63 H7           2.5990    -0.9350    -3.9060 hc         1 9JZ       0.072700
     64 H28          1.4260     0.6170    -5.3440 hc         1 9JZ       0.041367
     65 H28A         1.7840     1.9760    -4.2700 hc         1 9JZ       0.041367
     66 H28B         3.0800     1.2320    -5.2180 hc         1 9JZ       0.041367
     67 H6           0.7250     1.0060    -2.5950 h1         1 9JZ       0.075700
     68 HN4         -0.6830    -0.2140    -4.2390 hn         1 9JZ       0.355500
     69 H27          0.2990    -3.5510    -3.6050 ha         1 9JZ       0.159000
     70 H26         -1.0290    -5.5550    -4.1370 ha         1 9JZ       0.133000
     71 H25         -3.3780    -5.3380    -4.8420 ha         1 9JZ       0.133000
     72 H24         -4.4210    -3.1140    -5.0130 ha         1 9JZ       0.154000
     73 H23         -6.1890     0.6230    -5.1840 h4         1 9JZ       0.029600
     74 H22         -4.8550     2.6780    -4.7520 ha         1 9JZ       0.147000
     75 H21         -2.4540     2.4390    -4.1450 h4         1 9JZ       0.029600
@<TRIPOS>BOND
     1     1     2 2
     2     2     3 1
     3     2    17 1
     4     3     4 1
     5     3    10 1
     6     4     5 1
     7     4     9 1
     8     5     6 1
     9     6     7 1
    10     7     8 1
    11     8     9 1
    12    10    11 1
    13    11    12 2
    14    11    13 1
    15    13    14 1
    16    13    15 1
    17    15    16 1
    18    17    18 1
    19    17    22 1
    20    18    19 1
    21    19    20 1
    22    20    21 1
    23    20    22 1
    24    22    23 1
    25    23    24 2
    26    23    25 1
    27    25    26 1
    28    26    27 ar
    29    26    31 ar
    30    27    28 ar
    31    28    29 ar
    32    29    30 ar
    33    30    31 ar
    34    31    32 1
    35    32    33 ar
    36    32    37 ar
    37    33    34 ar
    38    34    35 ar
    39    35    36 ar
    40    36    37 ar
    41     3    38 1
    42     4    39 1
    43     5    40 1
    44     5    41 1
    45     6    42 1
    46     6    43 1
    47     7    44 1
    48     7    45 1
    49     8    46 1
    50     8    47 1
    51     9    48 1
    52     9    49 1
    53    10    50 1
    54    13    51 1
    55    14    52 1
    56    14    53 1
    57    14    54 1
    58    15    55 1
    59    16    56 1
    60    16    57 1
    61    16    58 1
    62    18    59 1
    63    18    60 1
    64    19    61 1
    65    19    62 1
    66    20    63 1
    67    21    64 1
    68    21    65 1
    69    21    66 1
    70    22    67 1
    71    25    68 1
    72    27    69 1
    73    28    70 1
    74    29    71 1
    75    30    72 1
    76    34    73 1
    77    35    74 1
    78    36    75 1
@<TRIPOS>SUBSTRUCTURE
     1 9JZ         1 TEMP              0 ****  ****    0 ROOT
