@<TRIPOS>MOLECULE
molecule
   67    69     1     0     0
SMALL
bcc


@<TRIPOS>ATOM
      1 O2           0.0000     0.0000     0.0000 o          1 9K0      -0.535100
      2 C23          1.2130     0.0000     0.0000 c          1 9K0       0.562300
      3 C24          1.9450     0.0000     1.2660 ce         1 9K0      -0.273200
      4 C25          1.2770     0.0010     2.4220 c2         1 9K0      -0.130000
      5 C22          1.9670    -0.0070    -1.3060 c3         1 9K0      -0.180400
      6 C20          0.9710    -0.0130    -2.4680 c3         1 9K0      -0.070400
      7 C18          1.7370    -0.0200    -3.7940 c3         1 9K0      -0.073700
      8 C19          2.5200    -1.3280    -3.9240 c3         1 9K0      -0.095100
      9 C16          0.7470     0.1000    -4.9540 c3         1 9K0      -0.052700
     10 C15         -0.0070     1.4540    -4.8810 c3         1 9K0      -0.080400
     11 C14          0.2580     2.1740    -6.2330 c3         1 9K0      -0.078400
     12 C9           0.5750     1.0140    -7.1780 c3         1 9K0      -0.034500
     13 C10          1.4900     0.1310    -6.2810 c3         1 9K0      -0.061000
     14 C17          2.8350     0.8330    -6.0880 c3         1 9K0      -0.092100
     15 C11          1.7200    -1.1740    -7.0070 c3         1 9K0      -0.065400
     16 C12          2.5800    -0.8700    -8.2450 c3         1 9K0      -0.079400
     17 C13          1.9000     0.1340    -9.1750 c3         1 9K0      -0.043200
     18 C8           1.3960     1.3380    -8.3910 c2         1 9K0      -0.095400
     19 C7           1.6640     2.5880    -8.7560 ce         1 9K0      -0.152000
     20 C6           2.4760     2.8460    -9.9550 ce         1 9K0      -0.133000
     21 C5           2.8300     4.0890   -10.2630 c2         1 9K0      -0.110400
     22 C            3.5440     4.3860   -11.5620 c3         1 9K0      -0.050700
     23 C4           2.5200     5.2310    -9.3230 c3         1 9K0      -0.050700
     24 C3           1.7270     6.2960   -10.0920 c3         1 9K0       0.194300
     25 O            1.6350     7.4860    -9.3070 oh         1 9K0      -0.603800
     26 C2           2.4470     6.5930   -11.3880 c2         1 9K0      -0.150400
     27 C21          2.7960     7.8180   -11.6910 c2         1 9K0      -0.191000
     28 C1           2.7480     5.4520   -12.3250 c3         1 9K0       0.194300
     29 O1           1.5250     4.8910   -12.8080 oh         1 9K0      -0.603800
     30 H1           3.0280    -0.0000     1.2660 ha         1 9K0       0.132000
     31 H3           1.8190     0.0010     3.3600 ha         1 9K0       0.127000
     32 H4           0.1940     0.0010     2.4220 ha         1 9K0       0.127000
     33 H6           2.5890     0.8780    -1.3680 hc         1 9K0       0.065700
     34 H7           2.5890    -0.8910    -1.3590 hc         1 9K0       0.065700
     35 H8           0.3490    -0.8970    -2.4060 hc         1 9K0       0.056200
     36 H9           0.3490     0.8720    -2.4150 hc         1 9K0       0.056200
     37 H10          2.4250     0.8160    -3.8180 hc         1 9K0       0.056700
     38 H11          1.8970    -2.0750    -4.4010 hc         1 9K0       0.036033
     39 H12          2.8090    -1.6750    -2.9390 hc         1 9K0       0.036033
     40 H13          3.4070    -1.1610    -4.5220 hc         1 9K0       0.036033
     41 H14          0.0420    -0.7210    -4.9400 hc         1 9K0       0.056700
     42 H15         -1.0690     1.2800    -4.7560 hc         1 9K0       0.046200
     43 H16          0.3780     2.0490    -4.0620 hc         1 9K0       0.046200
     44 H17         -0.6280     2.7040    -6.5630 hc         1 9K0       0.046700
     45 H18          1.1060     2.8430    -6.1500 hc         1 9K0       0.046700
     46 H19         -0.3260     0.4780    -7.4510 hc         1 9K0       0.067700
     47 H20          3.1510     1.2720    -7.0270 hc         1 9K0       0.040367
     48 H21          3.5750     0.1120    -5.7600 hc         1 9K0       0.040367
     49 H22          2.7330     1.6110    -5.3410 hc         1 9K0       0.040367
     50 H23          0.7710    -1.5940    -7.3150 hc         1 9K0       0.044700
     51 H24          2.2430    -1.8670    -6.3600 hc         1 9K0       0.044700
     52 H25          3.5310    -0.4620    -7.9220 hc         1 9K0       0.042200
     53 H26          2.7520    -1.7910    -8.7890 hc         1 9K0       0.042200
     54 H27          1.0630    -0.3470    -9.6650 hc         1 9K0       0.049700
     55 H28          2.6130     0.4680    -9.9190 hc         1 9K0       0.049700
     56 H29          1.2400     3.4160    -8.2010 ha         1 9K0       0.135000
     57 H30          2.7000     2.0360   -10.6390 ha         1 9K0       0.131000
     58 H31          4.5400     4.7570   -11.3520 hc         1 9K0       0.058200
     59 H32          3.6050     3.4830   -12.1580 hc         1 9K0       0.058200
     60 H33          1.9280     4.8670    -8.4920 hc         1 9K0       0.058200
     61 H34          3.4450     5.6610    -8.9580 hc         1 9K0       0.058200
     62 H35          0.7340     5.9210   -10.3080 h1         1 9K0       0.045700
     63 H36          0.7690     7.5560    -8.9420 ho         1 9K0       0.401500
     64 H37          3.3100     8.0200   -12.6230 ha         1 9K0       0.122000
     65 H38          2.5700     8.6300   -11.0100 ha         1 9K0       0.122000
     66 H39          3.3390     5.8160   -13.1570 h1         1 9K0       0.045700
     67 H40          1.4830     4.9880   -13.7450 ho         1 9K0       0.401500
@<TRIPOS>BOND
     1    27    26 2
     2    25    24 1
     3    26    24 1
     4    26    28 1
     5    24    23 1
     6    28    29 1
     7    28    22 1
     8    23    21 1
     9    22    21 1
    10    21    20 2
    11    20    19 1
    12    19    18 2
    13    18    17 1
    14    18    12 1
    15    11    12 1
    16    11    10 1
    17    14    13 1
    18    17    16 1
    19    12    13 1
    20    10     9 1
    21    13     9 1
    22    13    15 1
    23    16    15 1
    24     6     5 1
    25     6     7 1
    26     1     2 2
    27     5     2 1
    28     9     7 1
    29     2     3 1
    30     7     8 1
    31     3     4 2
    32     3    30 1
    33     4    31 1
    34     4    32 1
    35     5    33 1
    36     5    34 1
    37     6    35 1
    38     6    36 1
    39     7    37 1
    40     8    38 1
    41     8    39 1
    42     8    40 1
    43     9    41 1
    44    10    42 1
    45    10    43 1
    46    11    44 1
    47    11    45 1
    48    12    46 1
    49    14    47 1
    50    14    48 1
    51    14    49 1
    52    15    50 1
    53    15    51 1
    54    16    52 1
    55    16    53 1
    56    17    54 1
    57    17    55 1
    58    19    56 1
    59    20    57 1
    60    22    58 1
    61    22    59 1
    62    23    60 1
    63    23    61 1
    64    24    62 1
    65    25    63 1
    66    27    64 1
    67    27    65 1
    68    28    66 1
    69    29    67 1
@<TRIPOS>SUBSTRUCTURE
     1 9K0         1 TEMP              0 ****  ****    0 ROOT
