@<TRIPOS>MOLECULE
molecule
   39    41     1     0     0
SMALL
bcc


@<TRIPOS>ATOM
      1 N1           0.0000     0.0000     0.0000 nc         1 9K2      -0.480100
      2 C2           2.1910    -0.0000    -1.2180 c3         1 9K2       0.164500
      3 C3           1.3020     0.0000     0.0000 cd         1 9K2       0.378900
      4 C6           1.9160    -0.0000     4.1620 ca         1 9K2      -0.073000
      5 C8           3.0030    -0.0000     2.0060 ca         1 9K2      -0.046000
      6 C9           1.7480     0.0000     1.3900 ca         1 9K2      -0.248900
      7 C10          4.4100     0.0010     4.0530 cp         1 9K2      -0.049000
      8 C11          5.3360     1.0010     3.7620 ca         1 9K2      -0.091000
      9 C12          6.5690     0.9980     4.3820 ca         1 9K2      -0.173000
     10 C13          6.8870     0.0030     5.2910 ca         1 9K2       0.135900
     11 F            8.0950     0.0030     5.8960 f          1 9K2      -0.141900
     12 C14          5.9690    -0.9940     5.5830 ca         1 9K2      -0.168000
     13 C15          4.7320    -0.9960     4.9730 ca         1 9K2      -0.046300
     14 C7           3.0830    -0.0010     3.3890 cp         1 9K2      -0.085000
     15 C5           0.6880     0.0000     3.5700 ca         1 9K2      -0.159000
     16 C4           0.5820     0.0010     2.1800 ca         1 9K2      -0.016200
     17 N2          -0.4810     0.0010     1.3130 na         1 9K2      -0.053100
     18 N            2.4780     1.3850    -1.6130 n3         1 9K2      -0.723600
     19 C1           3.2860     2.0660    -0.5920 c3         1 9K2       0.149600
     20 C            3.1400     1.4320    -2.9240 c3         1 9K2       0.149600
     21 H2           1.6890    -0.5110    -2.0310 h1         1 9K2       0.050700
     22 H3           3.1180    -0.5100    -0.9880 h1         1 9K2       0.050700
     23 H4           1.9890    -0.0000     5.2430 ha         1 9K2       0.139000
     24 H5           3.9060    -0.0010     1.4060 ha         1 9K2       0.137000
     25 H6           5.0890     1.7780     3.0490 ha         1 9K2       0.140000
     26 H7           7.2890     1.7750     4.1560 ha         1 9K2       0.145000
     27 H8           3.0220    -1.7130     6.0190 hc         1 9K2       0.048700
     28 H9           3.2130    -2.3670     4.3860 hc         1 9K2       0.048700
     29 H10          4.2550    -2.9400     5.6960 hc         1 9K2       0.048700
     30 H11          6.2220    -1.7690     6.2960 ha         1 9K2       0.146000
     31 H12         -0.2060     0.0000     4.1800 ha         1 9K2       0.132000
     32 H14          3.6990     2.9780    -1.0080 h1         1 9K2       0.034367
     33 H15          4.0920     1.4160    -0.2760 h1         1 9K2       0.034367
     34 H16          2.6620     2.3090     0.2600 h1         1 9K2       0.034367
     35 H17          2.5190     0.9350    -3.6600 h1         1 9K2       0.034367
     36 H18          4.0990     0.9300    -2.8630 h1         1 9K2       0.034367
     37 H19          3.2910     2.4640    -3.2160 h1         1 9K2       0.034367
     38 H1          -1.4460     0.0010     1.5780 hn         1 9K2       0.332700
     39 C16          3.7360    -2.0800     5.2910 c3         1 9K2      -0.049800
@<TRIPOS>BOND
     1    39    13 1
     2    12    13 ar
     3    12    10 ar
     4     4    15 ar
     5     4    14 ar
     6    13     7 ar
     7    11    10 1
     8    15    16 ar
     9    10     9 ar
    10     7    14 1
    11     7     8 ar
    12    14     5 ar
    13     9     8 ar
    14    16    17 1
    15    16     6 ar
    16    17     1 1
    17     5     6 ar
    18     6     3 1
    19     1     3 2
    20     3     2 1
    21    20    18 1
    22     2    18 1
    23    18    19 1
    24     2    21 1
    25     2    22 1
    26     4    23 1
    27     5    24 1
    28     8    25 1
    29     9    26 1
    30    39    27 1
    31    39    28 1
    32    39    29 1
    33    12    30 1
    34    15    31 1
    35    19    32 1
    36    19    33 1
    37    19    34 1
    38    20    35 1
    39    20    36 1
    40    20    37 1
    41    17    38 1
@<TRIPOS>SUBSTRUCTURE
     1 9K2         1 TEMP              0 ****  ****    0 ROOT
