@<TRIPOS>MOLECULE
9K2
   39    41     1     0     0
SMALL
bcc


@<TRIPOS>ATOM
      1 N1           0.0000     0.0000     0.0000 nc         1 9K2      -0.610100
      2 C2           2.1910    -0.0000    -1.2180 c3         1 9K2       0.160500
      3 C3           1.3020     0.0000     0.0000 cd         1 9K2       0.394900
      4 C6           1.9160    -0.0000     4.1620 ca         1 9K2      -0.053000
      5 C8           3.0030    -0.0000     2.0060 ca         1 9K2      -0.013000
      6 C9           1.7480     0.0000     1.3900 ca         1 9K2      -0.254900
      7 C10          4.4100     0.0010     4.0530 cp         1 9K2      -0.039000
      8 C11          5.3360     1.0010     3.7620 ca         1 9K2      -0.066000
      9 C12          6.5690     0.9980     4.3820 ca         1 9K2      -0.140000
     10 C13          6.8870     0.0030     5.2910 ca         1 9K2       0.105900
     11 F            8.0950     0.0030     5.8960 f          1 9K2      -0.129900
     12 C14          5.9690    -0.9940     5.5830 ca         1 9K2      -0.134000
     13 C15          4.7320    -0.9960     4.9730 ca         1 9K2      -0.052300
     14 C7           3.0830    -0.0010     3.3890 cp         1 9K2      -0.080000
     15 C5           0.6880     0.0000     3.5700 ca         1 9K2      -0.119000
     16 C4           0.5820     0.0010     2.1800 ca         1 9K2      -0.182200
     17 N2          -0.4810     0.0010     1.3130 na         1 9K2       0.411900
     18 N            2.4780     1.3850    -1.6130 n3         1 9K2      -0.536600
     19 C1           3.2860     2.0660    -0.5920 c3         1 9K2       0.177100
     20 C            3.1400     1.4320    -2.9240 c3         1 9K2       0.177100
     21 H2           1.6890    -0.5110    -2.0310 h1         1 9K2       0.018200
     22 H3           3.1180    -0.5100    -0.9880 h1         1 9K2       0.018200
     23 H4           1.9890    -0.0000     5.2430 ha         1 9K2       0.111000
     24 H5           3.9060    -0.0010     1.4060 ha         1 9K2       0.111000
     25 H6           5.0890     1.7780     3.0490 ha         1 9K2       0.112000
     26 H7           7.2890     1.7750     4.1560 ha         1 9K2       0.119000
     27 H8           3.0220    -1.7130     6.0190 hc         1 9K2       0.014700
     28 H9           3.2130    -2.3670     4.3860 hc         1 9K2       0.014700
     29 H10          4.2550    -2.9400     5.6960 hc         1 9K2       0.014700
     30 H11          6.2220    -1.7690     6.2960 ha         1 9K2       0.122000
     31 H12         -0.2060     0.0000     4.1800 ha         1 9K2       0.105000
     32 H14          3.6990     2.9780    -1.0080 h1         1 9K2       0.003033
     33 H15          4.0920     1.4160    -0.2760 h1         1 9K2       0.003033
     34 H16          2.6620     2.3090     0.2600 h1         1 9K2       0.003033
     35 H17          2.5190     0.9350    -3.6600 h1         1 9K2       0.003033
     36 H18          4.0990     0.9300    -2.8630 h1         1 9K2       0.003033
     37 H19          3.2910     2.4640    -3.2160 h1         1 9K2       0.003033
     38 H1          -1.4460     0.0010     1.5780 hn         1 9K2       0.153700
     39 C16          3.7360    -2.0800     5.2910 c3         1 9K2       0.051200
@<TRIPOS>BOND
     1     1     3 2   
     2     1    17 1   
     3     2     3 1   
     4     2    18 1   
     5     2    21 1   
     6     2    22 1   
     7     3     6 1   
     8     4    14 ar  
     9     4    15 ar  
    10     4    23 1   
    11     5     6 ar  
    12     5    14 ar  
    13     5    24 1   
    14     6    16 ar  
    15     7     8 ar  
    16     7    13 ar  
    17     7    14 1   
    18     8     9 ar  
    19     8    25 1   
    20     9    10 ar  
    21     9    26 1   
    22    10    11 1   
    23    10    12 ar  
    24    12    13 ar  
    25    12    30 1   
    26    13    39 1   
    27    15    16 ar  
    28    15    31 1   
    29    16    17 1   
    30    17    38 1   
    31    18    19 1   
    32    18    20 1   
    33    19    32 1   
    34    19    33 1   
    35    19    34 1   
    36    20    35 1   
    37    20    36 1   
    38    20    37 1   
    39    27    39 1   
    40    28    39 1   
    41    29    39 1   
@<TRIPOS>SUBSTRUCTURE
     1 9K2         1 TEMP              0 ****  ****    0 ROOT
