@<TRIPOS>MOLECULE
9K3
   46    48     1     0     0
SMALL
bcc


@<TRIPOS>ATOM
      1 N            0.0000     0.0000     0.0000 nb         1 9K3      -0.608000
      2 C            3.4250     0.0030    -1.1770 ca         1 9K3      -0.104000
      3 O            2.5770     2.0770     5.5570 oh         1 9K3      -0.589800
      4 C1           2.0630     0.0010    -1.2030 ca         1 9K3      -0.133300
      5 C11          0.1300    -1.4300     7.9380 c3         1 9K3       0.142800
      6 C12          0.0900    -2.8860     8.4060 c3         1 9K3       0.005900
      7 C14          3.4090     1.4400     4.5850 c3         1 9K3       0.149800
      8 C15          3.3180     2.1970     3.2600 c3         1 9K3      -0.052100
      9 C16          4.8590     1.4410     5.0760 c3         1 9K3      -0.052100
     10 C2           1.3410     0.0000     0.0000 ca         1 9K3       0.387600
     11 C3           2.0520     0.0000     1.2250 ca         1 9K3      -0.096300
     12 C4           3.4500     0.0000     1.2170 ca         1 9K3      -0.130000
     13 C5           4.1200     0.0010     0.0280 ca         1 9K3      -0.097000
     14 C6           1.2900    -0.0010     2.4670 ca         1 9K3      -0.273200
     15 C7          -0.7110    -0.0000     1.1030 ca         1 9K3       0.584200
     16 C8          -0.1050    -0.0010     2.3800 ca         1 9K3      -0.071900
     17 C9           0.4210    -0.0030     4.4860 cc         1 9K3       0.194800
     18 N1          -2.0940     0.0010     1.0140 nv         1 9K3      -0.655500
     19 N2          -0.5780    -0.0030     3.6500 nd         1 9K3      -0.482100
     20 N3           1.5970    -0.0030     3.8000 na         1 9K3       0.400700
     21 N4           0.2530    -1.3900     6.4750 n7         1 9K3      -0.599200
     22 H1           3.9760     0.0040    -2.1100 ha         1 9K3       0.103000
     23 H2           2.9870     2.8750     5.8470 ho         1 9K3       0.403000
     24 H3           1.5380     0.0020    -2.1510 ha         1 9K3       0.117000
     25 H4           1.1440     0.5070     6.4230 h1         1 9K3       0.030200
     26 H5          -0.6190     0.5050     6.2730 h1         1 9K3       0.030200
     27 H6           1.0210    -0.9510     8.3230 h1         1 9K3       0.005700
     28 H7          -0.7470    -0.9090     8.3030 h1         1 9K3       0.005700
     29 H8           0.1200    -2.9180     9.4880 hc         1 9K3       0.005367
     30 H9          -0.8230    -3.3530     8.0560 hc         1 9K3       0.005367
     31 H10          0.9440    -3.4180     8.0050 hc         1 9K3       0.005367
     32 H11          2.9220    -0.5150     5.3370 h1         1 9K3       0.058700
     33 H12          3.6240    -0.5130     3.7130 h1         1 9K3       0.058700
     34 H13          3.5210     3.2480     3.4300 hc         1 9K3       0.022700
     35 H14          4.0450     1.7970     2.5640 hc         1 9K3       0.022700
     36 H15          2.3230     2.0850     2.8470 hc         1 9K3       0.022700
     37 H16          5.4660     0.8410     4.4090 hc         1 9K3       0.022700
     38 H17          5.2340     2.4570     5.0900 hc         1 9K3       0.022700
     39 H18          4.9020     1.0260     6.0760 hc         1 9K3       0.022700
     40 H19          4.0000    -0.0010     2.1510 ha         1 9K3       0.114000
     41 H20          5.2030     0.0030     0.0230 ha         1 9K3       0.100000
     42 H21         -2.5920     0.8680     0.9720 hn         1 9K3       0.277800
     43 H22         -2.5920    -0.8650     0.9540 hn         1 9K3       0.277800
     44 H23         -0.5240    -1.8660     6.0610 hn         1 9K3       0.265800
     45 C10          0.2940    -0.0040     5.9880 c3         1 9K3       0.145500
     46 C13          2.9420    -0.0030     4.3820 c3         1 9K3      -0.065700
@<TRIPOS>BOND
     1     1    10 ar  
     2     1    15 ar  
     3     2     4 ar  
     4     2    13 ar  
     5     2    22 1   
     6     3     7 1   
     7     3    23 1   
     8     4    10 ar  
     9     4    24 1   
    10     5     6 1   
    11     5    21 1   
    12     5    27 1   
    13     5    28 1   
    14     6    29 1   
    15     6    30 1   
    16     6    31 1   
    17     7     8 1   
    18     7     9 1   
    19     7    46 1   
    20     8    34 1   
    21     8    35 1   
    22     8    36 1   
    23     9    37 1   
    24     9    38 1   
    25     9    39 1   
    26    10    11 ar  
    27    11    12 ar  
    28    11    14 ar  
    29    12    13 ar  
    30    12    40 1   
    31    13    41 1   
    32    14    16 ar  
    33    14    20 1   
    34    15    16 ar  
    35    15    18 1   
    36    16    19 1   
    37    17    19 2   
    38    17    20 1   
    39    17    45 1   
    40    18    42 1   
    41    18    43 1   
    42    20    46 1   
    43    21    44 1   
    44    21    45 1   
    45    25    45 1   
    46    26    45 1   
    47    32    46 1   
    48    33    46 1   
@<TRIPOS>SUBSTRUCTURE
     1 9K3         1 TEMP              0 ****  ****    0 ROOT
