@<TRIPOS>MOLECULE
molecule
   46    48     1     0     0
SMALL
bcc


@<TRIPOS>ATOM
      1 N            0.0000     0.0000     0.0000 nb         1 9K3      -0.729000
      2 C            3.4250     0.0030    -1.1770 ca         1 9K3      -0.125000
      3 O            2.5770     2.0770     5.5570 oh         1 9K3      -0.604800
      4 C1           2.0630     0.0010    -1.2030 ca         1 9K3      -0.161300
      5 C11          0.1300    -1.4300     7.9380 c3         1 9K3       0.151800
      6 C12          0.0900    -2.8860     8.4060 c3         1 9K3      -0.093100
      7 C14          3.4090     1.4400     4.5850 c3         1 9K3       0.125800
      8 C15          3.3180     2.1970     3.2600 c3         1 9K3      -0.127600
      9 C16          4.8590     1.4410     5.0760 c3         1 9K3      -0.127600
     10 C2           1.3410     0.0000     0.0000 ca         1 9K3       0.440600
     11 C3           2.0520     0.0000     1.2250 ca         1 9K3      -0.130300
     12 C4           3.4500     0.0000     1.2170 ca         1 9K3      -0.128000
     13 C5           4.1200     0.0010     0.0280 ca         1 9K3      -0.134000
     14 C6           1.2900    -0.0010     2.4670 ca         1 9K3      -0.089200
     15 C7          -0.7110    -0.0000     1.1030 ca         1 9K3       0.766200
     16 C8          -0.1050    -0.0010     2.3800 ca         1 9K3      -0.046900
     17 C9           0.4210    -0.0030     4.4860 cc         1 9K3       0.414800
     18 N1          -2.0940     0.0010     1.0140 nv         1 9K3      -1.077500
     19 N2          -0.5780    -0.0030     3.6500 nd         1 9K3      -0.575100
     20 N3           1.5970    -0.0030     3.8000 na         1 9K3      -0.099300
     21 N4           0.2530    -1.3900     6.4750 n7         1 9K3      -0.823200
     22 H1           3.9760     0.0040    -2.1100 ha         1 9K3       0.131000
     23 H2           2.9870     2.8750     5.8470 ho         1 9K3       0.410000
     24 H3           1.5380     0.0020    -2.1510 ha         1 9K3       0.150000
     25 H4           1.1440     0.5070     6.4230 h1         1 9K3       0.065200
     26 H5          -0.6190     0.5050     6.2730 h1         1 9K3       0.065200
     27 H6           1.0210    -0.9510     8.3230 h1         1 9K3       0.032700
     28 H7          -0.7470    -0.9090     8.3030 h1         1 9K3       0.032700
     29 H8           0.1200    -2.9180     9.4880 hc         1 9K3       0.040033
     30 H9          -0.8230    -3.3530     8.0560 hc         1 9K3       0.040033
     31 H10          0.9440    -3.4180     8.0050 hc         1 9K3       0.040033
     32 H11          2.9220    -0.5150     5.3370 h1         1 9K3       0.081700
     33 H12          3.6240    -0.5130     3.7130 h1         1 9K3       0.081700
     34 H13          3.5210     3.2480     3.4300 hc         1 9K3       0.050200
     35 H14          4.0450     1.7970     2.5640 hc         1 9K3       0.050200
     36 H15          2.3230     2.0850     2.8470 hc         1 9K3       0.050200
     37 H16          5.4660     0.8410     4.4090 hc         1 9K3       0.050200
     38 H17          5.2340     2.4570     5.0900 hc         1 9K3       0.050200
     39 H18          4.9020     1.0260     6.0760 hc         1 9K3       0.050200
     40 H19          4.0000    -0.0010     2.1510 ha         1 9K3       0.127000
     41 H20          5.2030     0.0030     0.0230 ha         1 9K3       0.127000
     42 H21         -2.5920     0.8680     0.9720 hn         1 9K3       0.439800
     43 H22         -2.5920    -0.8650     0.9540 hn         1 9K3       0.439800
     44 H23         -0.5240    -1.8660     6.0610 hn         1 9K3       0.364800
     45 C10          0.2940    -0.0040     5.9880 c3         1 9K3       0.153500
     46 C13          2.9420    -0.0030     4.3820 c3         1 9K3       0.053300
@<TRIPOS>BOND
     1     2    13 ar
     2     2     4 ar
     3    13    12 ar
     4     4    10 ar
     5    12    11 ar
     6    10     1 ar
     7    10    11 ar
     8     1    15 ar
     9    11    14 ar
    10    15    18 1
    11    15    16 ar
    12    14    16 ar
    13    14    20 1
    14     6     5 1
    15    16    19 1
    16    46    20 1
    17    46     7 1
    18    20    17 1
    19     5    21 1
    20     3     7 1
    21    19    17 2
    22     7     9 1
    23     7     8 1
    24    17    45 1
    25    21    45 1
    26     2    22 1
    27     3    23 1
    28     4    24 1
    29    45    25 1
    30    45    26 1
    31     5    27 1
    32     5    28 1
    33     6    29 1
    34     6    30 1
    35     6    31 1
    36    46    32 1
    37    46    33 1
    38     8    34 1
    39     8    35 1
    40     8    36 1
    41     9    37 1
    42     9    38 1
    43     9    39 1
    44    12    40 1
    45    13    41 1
    46    18    42 1
    47    18    43 1
    48    21    44 1
@<TRIPOS>SUBSTRUCTURE
     1 9K3         1 TEMP              0 ****  ****    0 ROOT
