@<TRIPOS>MOLECULE
9K4
  102   103     1     0     0
SMALL
bcc


@<TRIPOS>ATOM
      1 C10          1.5300     0.0000     0.0000 c3         1 9K4      -0.051500
      2 C13         -0.5020     0.1240    -1.4160 c          1 9K4       0.559100
      3 C15         -2.3390     0.2650    -3.0360 c3         1 9K4       0.008500
      4 C22         -9.9910     3.0950    -0.4780 c3         1 9K4       0.197400
      5 C24        -11.5970     3.9660    -2.0300 c3         1 9K4       0.211400
      6 C28        -13.7010     0.8930    -5.0960 c3         1 9K4       0.209400
      7 C02          5.7080    -0.8960     1.5160 ca         1 9K4       0.096900
      8 C03          6.3000     0.3550     1.4470 ca         1 9K4       0.147900
      9 F04          7.6470     0.4670     1.4490 f          1 9K4      -0.088900
     10 C05          5.5120     1.4910     1.3780 ca         1 9K4      -0.121000
     11 C06          4.1320     1.3750     1.3760 ca         1 9K4       0.148900
     12 F07          3.3620     2.4830     1.3070 f          1 9K4      -0.108900
     13 C08          3.5420     0.1250     1.4450 ca         1 9K4      -0.193300
     14 C09          2.0400     0.0000     1.4420 c3         1 9K4       0.033900
     15 N11          2.0200    -1.1980    -0.6930 nz         1 9K4       0.056400
     16 C12          0.0000     0.0000     0.0000 c3         1 9K4      -0.115400
     17 N14         -1.8270     0.1450    -1.6610 n          1 9K4      -0.098800
     18 C16         -3.3650     1.4020    -3.0790 c3         1 9K4       0.142800
     19 N17         -4.3910     1.1720    -2.0530 n3         1 9K4      -0.501600
     20 C18         -5.4850     2.1440    -2.1740 c3         1 9K4       0.084800
     21 C19         -6.6240     1.7330    -1.2760 c          1 9K4       0.564100
     22 N20         -7.7440     2.4810    -1.2240 ns         1 9K4      -0.175900
     23 O23        -10.5200     3.0530    -1.8040 os         1 9K4      -0.412600
     24 C25        -12.0820     3.8360    -3.4760 c3         1 9K4       0.209400
     25 O26        -12.6420     2.5360    -3.6750 os         1 9K4      -0.397600
     26 C27        -13.1280     2.3080    -4.9980 c3         1 9K4       0.208400
     27 O29        -14.8470     0.7840    -4.2490 os         1 9K4      -0.398600
     28 C30        -15.4610    -0.5060    -4.2660 c3         1 9K4       0.208400
     29 C31        -16.6690    -0.5070    -3.3280 c3         1 9K4       0.209400
     30 O32        -17.6620     0.3910    -3.8290 os         1 9K4      -0.398600
     31 C33        -18.8390     0.4650    -3.0220 c3         1 9K4       0.208400
     32 C34        -19.8270     1.4500    -3.6500 c3         1 9K4       0.208400
     33 O35        -20.2650     0.9460    -4.9140 os         1 9K4      -0.396600
     34 C36        -21.1950     1.7960    -5.5870 c3         1 9K4       0.208400
     35 C37        -21.5940     1.1600    -6.9210 c3         1 9K4       0.210400
     36 O38        -22.3020    -0.0570    -6.6750 os         1 9K4      -0.409600
     37 C39        -22.7220    -0.7350    -7.8610 c3         1 9K4       0.196400
     38 C40        -23.4650    -2.0160    -7.4800 c3         1 9K4       0.049000
     39 N41        -24.7010    -1.6710    -6.7730 ns         1 9K4      -0.197900
     40 C42        -25.5230    -2.6470    -6.3390 c          1 9K4       0.569100
     41 C43        -26.7950    -2.2920    -5.6100 c3         1 9K4      -0.066100
     42 O45        -25.2410    -3.8100    -6.5340 o          1 9K4      -0.651100
     43 O46         -6.5330     0.7290    -0.6030 o          1 9K4      -0.647100
     44 C47         -3.8100     1.1980    -0.7030 c3         1 9K4       0.142800
     45 C48         -2.8010     0.0470    -0.5630 c3         1 9K4       0.008500
     46 O49          0.2860     0.2040    -2.3340 o          1 9K4      -0.703100
     47 C50          4.3280    -1.0100     1.5100 ca         1 9K4      -0.116000
     48 H1           1.8900     0.8850    -0.5100 hx         1 9K4       0.113700
     49 H2          -2.4260    -0.6290    -3.6410 h1         1 9K4       0.050450
     50 H3          -1.3690     0.7440    -2.9740 h1         1 9K4       0.050450
     51 H4          -9.2060     1.1010    -0.6460 h1         1 9K4       0.035700
     52 H5          -8.5090     2.0490     0.6750 h1         1 9K4       0.035700
     53 H6          -9.6140     4.0890    -0.2710 h1         1 9K4      -0.001300
     54 H7         -10.7720     2.8490     0.2310 h1         1 9K4      -0.001300
     55 H8         -11.2540     4.9780    -1.8540 h1         1 9K4      -0.000300
     56 H9         -12.4120     3.7370    -1.3540 h1         1 9K4      -0.000300
     57 H10        -12.9500     0.1770    -4.7820 h1         1 9K4      -0.003800
     58 H11        -13.9880     0.6900    -6.1200 h1         1 9K4      -0.003800
     59 H12          5.9740     2.4690     1.3240 ha         1 9K4       0.158000
     60 H13          1.7530    -0.9260     1.9260 hc         1 9K4       0.057700
     61 H14          1.6070     0.8360     1.9780 hc         1 9K4       0.057700
     62 H15          1.2420    -1.7430    -1.0090 hn         1 9K4       0.233133
     63 H16          2.5770    -0.9250    -1.4790 hn         1 9K4       0.233133
     64 H18         -0.3610     0.8370     0.5860 hc         1 9K4       0.067200
     65 H19         -0.3610    -0.9260     0.4320 hc         1 9K4       0.067200
     66 H20         -3.8320     1.4280    -4.0560 h1         1 9K4       0.030200
     67 H21         -2.8670     2.3440    -2.8860 h1         1 9K4       0.030200
     68 H23         -5.1300     3.1250    -1.8810 h1         1 9K4       0.026700
     69 H24         -5.8280     2.1750    -3.2010 h1         1 9K4       0.026700
     70 H25         -7.8030     3.3310    -1.7490 hn         1 9K4       0.179500
     71 H26        -12.8360     4.5880    -3.6730 h1         1 9K4      -0.003800
     72 H27        -11.2460     3.9760    -4.1510 h1         1 9K4      -0.003800
     73 H28        -12.3140     2.4180    -5.7050 h1         1 9K4      -0.003800
     74 H29        -13.9040     3.0280    -5.2270 h1         1 9K4      -0.003800
     75 H30        -15.7850    -0.7380    -5.2730 h1         1 9K4      -0.003300
     76 H31        -14.7460    -1.2510    -3.9360 h1         1 9K4      -0.003300
     77 H32        -17.0820    -1.5070    -3.2720 h1         1 9K4      -0.003800
     78 H33        -16.3600    -0.1890    -2.3400 h1         1 9K4      -0.003800
     79 H34        -18.5750     0.8030    -2.0280 h1         1 9K4      -0.003300
     80 H35        -19.2970    -0.5150    -2.9610 h1         1 9K4      -0.003300
     81 H36        -19.3400     2.4080    -3.7930 h1         1 9K4      -0.004300
     82 H37        -20.6810     1.5730    -2.9950 h1         1 9K4      -0.004300
     83 H38        -20.7360     2.7600    -5.7700 h1         1 9K4      -0.004800
     84 H39        -22.0770     1.9260    -4.9710 h1         1 9K4      -0.004800
     85 H40        -20.7030     0.9480    -7.5000 h1         1 9K4      -0.002800
     86 H41        -22.2290     1.8430    -7.4710 h1         1 9K4      -0.002800
     87 H42        -23.3810    -0.0910    -8.4310 h1         1 9K4      -0.003800
     88 H43        -21.8540    -0.9850    -8.4600 h1         1 9K4      -0.003800
     89 H44        -23.7060    -2.5750    -8.3760 h1         1 9K4       0.033700
     90 H45        -22.8370    -2.6200    -6.8360 h1         1 9K4       0.033700
     91 H46        -24.9480    -0.7110    -6.6350 hn         1 9K4       0.178500
     92 H47        -27.4000    -1.6470    -6.2340 hc         1 9K4       0.021367
     93 H48        -27.3460    -3.1970    -5.3850 hc         1 9K4       0.021367
     94 H49        -26.5520    -1.7790    -4.6880 hc         1 9K4       0.021367
     95 H50         -3.3030     2.1430    -0.5470 h1         1 9K4       0.030200
     96 H51         -4.5980     1.0780     0.0310 h1         1 9K4       0.030200
     97 H52         -2.2860     0.1290     0.3870 h1         1 9K4       0.050450
     98 H53         -3.3200    -0.9010    -0.6210 h1         1 9K4       0.050450
     99 H54          3.8650    -1.9880     1.5640 ha         1 9K4       0.123000
    100 H113         2.5440    -1.7630    -0.0540 hn         1 9K4       0.233133
    101 F01          6.4760    -2.0050     1.5840 f          1 9K4      -0.094900
    102 C21         -8.8510     2.0810    -0.3520 c3         1 9K4       0.046000
@<TRIPOS>BOND
     1     1    14 1   
     2     1    15 1   
     3     1    16 1   
     4     1    48 1   
     5     2    16 1   
     6     2    17 1   
     7     2    46 2   
     8     3    17 1   
     9     3    18 1   
    10     3    49 1   
    11     3    50 1   
    12     4    23 1   
    13     4    53 1   
    14     4    54 1   
    15     4   102 1   
    16     5    23 1   
    17     5    24 1   
    18     5    55 1   
    19     5    56 1   
    20     6    26 1   
    21     6    27 1   
    22     6    57 1   
    23     6    58 1   
    24     7     8 ar  
    25     7    47 ar  
    26     7   101 1   
    27     8     9 1   
    28     8    10 ar  
    29    10    11 ar  
    30    10    59 1   
    31    11    12 1   
    32    11    13 ar  
    33    13    14 1   
    34    13    47 ar  
    35    14    60 1   
    36    14    61 1   
    37    15    62 1   
    38    15    63 1   
    39    15   100 1   
    40    16    64 1   
    41    16    65 1   
    42    17    45 1   
    43    18    19 1   
    44    18    66 1   
    45    18    67 1   
    46    19    20 1   
    47    19    44 1   
    48    20    21 1   
    49    20    68 1   
    50    20    69 1   
    51    21    22 1   
    52    21    43 2   
    53    22    70 1   
    54    22   102 1   
    55    24    25 1   
    56    24    71 1   
    57    24    72 1   
    58    25    26 1   
    59    26    73 1   
    60    26    74 1   
    61    27    28 1   
    62    28    29 1   
    63    28    75 1   
    64    28    76 1   
    65    29    30 1   
    66    29    77 1   
    67    29    78 1   
    68    30    31 1   
    69    31    32 1   
    70    31    79 1   
    71    31    80 1   
    72    32    33 1   
    73    32    81 1   
    74    32    82 1   
    75    33    34 1   
    76    34    35 1   
    77    34    83 1   
    78    34    84 1   
    79    35    36 1   
    80    35    85 1   
    81    35    86 1   
    82    36    37 1   
    83    37    38 1   
    84    37    87 1   
    85    37    88 1   
    86    38    39 1   
    87    38    89 1   
    88    38    90 1   
    89    39    40 1   
    90    39    91 1   
    91    40    41 1   
    92    40    42 2   
    93    41    92 1   
    94    41    93 1   
    95    41    94 1   
    96    44    45 1   
    97    44    95 1   
    98    44    96 1   
    99    45    97 1   
   100    45    98 1   
   101    47    99 1   
   102    51   102 1   
   103    52   102 1   
@<TRIPOS>SUBSTRUCTURE
     1 9K4         1 TEMP              0 ****  ****    0 ROOT
