@<TRIPOS>MOLECULE
molecule
   47    50     1     0     0
SMALL
bcc


@<TRIPOS>ATOM
      1 C1           0.0000     0.0000     0.0000 ca         1 9K5      -0.022000
      2 C2           1.3960     0.0000     0.0000 ca         1 9K5      -0.145600
      3 C3           2.0880     0.0000     1.2130 ca         1 9K5       0.018000
      4 O4           0.5980     1.2370    -4.9500 os         1 9K5      -0.406600
      5 O5           0.9250     0.1060    -8.2900 oh         1 9K5      -0.558800
      6 C7           2.2620    -0.0040    -3.6620 c3         1 9K5       0.157400
      7 C8           1.3320    -0.0050    -4.8780 c3         1 9K5       0.126100
      8 C9           2.1560    -0.0530    -6.1840 c3         1 9K5       0.093100
      9 C10          1.3690     0.8540    -7.1570 c3         1 9K5       0.090100
     10 C11          0.1640     1.3430    -6.3240 c3         1 9K5       0.256800
     11 C12          0.3310     3.8430    -6.0220 cc         1 9K5       0.434700
     12 C13         -0.9770     4.5670    -7.5920 ca         1 9K5      -0.183200
     13 C14         -0.9890     3.1630    -7.6520 ca         1 9K5       0.461800
     14 C15         -2.4500     3.2680    -9.4230 ca         1 9K5       0.722900
     15 C16         -1.7600     5.2770    -8.5180 ca         1 9K5       0.780200
     16 O2           3.3530    -0.0030    -1.2750 o          1 9K5      -0.547000
     17 C6           2.1380    -0.0020    -1.2780 c          1 9K5       0.652700
     18 C4           1.3890     0.0010     2.4010 ca         1 9K5      -0.333500
     19 S            2.2610     0.0010     3.9330 sy         1 9K5       1.518000
     20 O1           2.4590     1.3650     4.2800 o          1 9K5      -0.609800
     21 O            1.5910    -0.9250     4.7760 o          1 9K5      -0.609800
     22 C5           0.0050     0.0010     2.3950 ca         1 9K5       0.013000
     23 C           -0.6860     0.0010     1.1970 ca         1 9K5      -0.156000
     24 O3           1.4670    -0.0030    -2.4460 os         1 9K5      -0.417900
     25 O6           2.2200    -1.3890    -6.6870 oh         1 9K5      -0.568800
     26 N           -0.1520     2.7350    -6.6520 na         1 9K5      -0.258000
     27 N2          -1.7300     2.5620    -8.5760 nb         1 9K5      -0.768000
     28 N3          -2.4650     4.5890    -9.4110 nb         1 9K5      -0.802000
     29 N4          -1.7960     6.6600    -8.5020 nv         1 9K5      -1.026500
     30 N1          -0.1560     4.9160    -6.5730 nd         1 9K5      -0.580100
     31 H1          -0.5430    -0.0000    -0.9370 ha         1 9K5       0.160000
     32 H2           3.1710     0.0000     1.2200 ha         1 9K5       0.164000
     33 H4           2.8870     0.8800    -3.6860 h1         1 9K5       0.063700
     34 H5           2.8870    -0.8890    -3.6840 h1         1 9K5       0.063700
     35 H6           0.6470    -0.8430    -4.8360 h1         1 9K5       0.091700
     36 H7           3.1500     0.3450    -6.0180 h1         1 9K5       0.051700
     37 H8           1.9790     1.6950    -7.4660 h1         1 9K5       0.058700
     38 H9          -0.6940     0.7050    -6.4960 h2         1 9K5       0.114700
     39 H10          1.0200     3.8320    -5.1860 h5         1 9K5       0.088800
     40 H11         -3.0390     2.7460   -10.1680 h5         1 9K5       0.064100
     41 H14         -0.5390     0.0020     3.3320 ha         1 9K5       0.152000
     42 H15         -1.7690     0.0020     1.1980 ha         1 9K5       0.150000
     43 H16          3.1190    -1.6200    -6.8540 ho         1 9K5       0.407000
     44 H17         -0.9430     7.1830    -8.5110 hn         1 9K5       0.447300
     45 H18         -2.6750     7.1380    -8.5190 hn         1 9K5       0.447300
     46 F1           3.7220    -0.6130     3.6510 f          1 9K5      -0.262900
     47 H3           1.4790     0.2950    -9.0290 ho         1 9K5       0.410000
@<TRIPOS>BOND
     1    14    27 ar
     2    14    28 ar
     3    27    13 ar
     4    25     8 1
     5     4     7 1
     6     4    10 1
     7     7     6 1
     8     7     8 1
     9    28    15 ar
    10    10    26 1
    11    10     9 1
    12    13    26 1
    13    13    12 ar
    14     6    24 1
    15     8     9 1
    16    26    11 1
    17    15    12 ar
    18    15    29 1
    19     9     5 1
    20    12    30 1
    21    24    17 1
    22    11    30 2
    23    16    17 2
    24    17     2 1
    25     2     1 ar
    26     2     3 ar
    27     1    23 ar
    28     3    18 ar
    29    23    22 ar
    30    18    22 ar
    31    18    19 1
    32    21    19 2
    33    19    20 2
    34     1    31 1
    35     3    32 1
    36     5    47 1
    37     6    33 1
    38     6    34 1
    39     7    35 1
    40     8    36 1
    41     9    37 1
    42    10    38 1
    43    11    39 1
    44    14    40 1
    45    22    41 1
    46    23    42 1
    47    25    43 1
    48    29    44 1
    49    29    45 1
    50    19    46 1
@<TRIPOS>SUBSTRUCTURE
     1 9K5         1 TEMP              0 ****  ****    0 ROOT
