@<TRIPOS>MOLECULE
9K5
   47    50     1     0     0
SMALL
bcc


@<TRIPOS>ATOM
      1 C1           0.0000     0.0000     0.0000 ca         1 9K5       0.005000
      2 C2           1.3960     0.0000     0.0000 ca         1 9K5      -0.172600
      3 C3           2.0880     0.0000     1.2130 ca         1 9K5       0.053000
      4 O4           0.5980     1.2370    -4.9500 os         1 9K5      -0.393600
      5 O5           0.9250     0.1060    -8.2900 oh         1 9K5      -0.538800
      6 C7           2.2620    -0.0040    -3.6620 c3         1 9K5       0.229400
      7 C8           1.3320    -0.0050    -4.8780 c3         1 9K5       0.155100
      8 C9           2.1560    -0.0530    -6.1840 c3         1 9K5       0.135100
      9 C10          1.3690     0.8540    -7.1570 c3         1 9K5       0.125100
     10 C11          0.1640     1.3430    -6.3240 c3         1 9K5       0.151800
     11 C12          0.3310     3.8430    -6.0220 cc         1 9K5       0.257700
     12 C13         -0.9770     4.5670    -7.5920 ca         1 9K5      -0.214200
     13 C14         -0.9890     3.1630    -7.6520 ca         1 9K5       0.253800
     14 C15         -2.4500     3.2680    -9.4230 ca         1 9K5       0.666900
     15 C16         -1.7600     5.2770    -8.5180 ca         1 9K5       0.590200
     16 O2           3.3530    -0.0030    -1.2750 o          1 9K5      -0.587000
     17 C6           2.1380    -0.0020    -1.2780 c          1 9K5       0.724700
     18 C4           1.3890     0.0010     2.4010 ca         1 9K5      -0.184500
     19 S            2.2610     0.0010     3.9330 sy         1 9K5       1.195000
     20 O1           2.4590     1.3650     4.2800 o          1 9K5      -0.573300
     21 O            1.5910    -0.9250     4.7760 o          1 9K5      -0.573300
     22 C5           0.0050     0.0010     2.3950 ca         1 9K5       0.058000
     23 C           -0.6860     0.0010     1.1970 ca         1 9K5      -0.139000
     24 O3           1.4670    -0.0030    -2.4460 os         1 9K5      -0.403900
     25 O6           2.2200    -1.3890    -6.6870 oh         1 9K5      -0.548800
     26 N           -0.1520     2.7350    -6.6520 na         1 9K5       0.199000
     27 N2          -1.7300     2.5620    -8.5760 nb         1 9K5      -0.646000
     28 N3          -2.4650     4.5890    -9.4110 nb         1 9K5      -0.704000
     29 N4          -1.7960     6.6600    -8.5020 nv         1 9K5      -0.549500
     30 N1          -0.1560     4.9160    -6.5730 nd         1 9K5      -0.491100
     31 H1          -0.5430    -0.0000    -0.9370 ha         1 9K5       0.121000
     32 H2           3.1710     0.0000     1.2200 ha         1 9K5       0.129000
     33 H4           2.8870     0.8800    -3.6860 h1         1 9K5       0.021700
     34 H5           2.8870    -0.8890    -3.6840 h1         1 9K5       0.021700
     35 H6           0.6470    -0.8430    -4.8360 h1         1 9K5       0.052700
     36 H7           3.1500     0.3450    -6.0180 h1         1 9K5       0.016700
     37 H8           1.9790     1.6950    -7.4660 h1         1 9K5       0.020700
     38 H9          -0.6940     0.7050    -6.4960 h2         1 9K5       0.071700
     39 H10          1.0200     3.8320    -5.1860 h5         1 9K5       0.039800
     40 H11         -3.0390     2.7460   -10.1680 h5         1 9K5      -0.001900
     41 H14         -0.5390     0.0020     3.3320 ha         1 9K5       0.119000
     42 H15         -1.7690     0.0020     1.1980 ha         1 9K5       0.118000
     43 H16          3.1190    -1.6200    -6.8540 ho         1 9K5       0.391000
     44 H17         -0.9430     7.1830    -8.5110 hn         1 9K5       0.277300
     45 H18         -2.6750     7.1380    -8.5190 hn         1 9K5       0.277300
     46 F1           3.7220    -0.6130     3.6510 f          1 9K5      -0.150900
     47 H3           1.4790     0.2950    -9.0290 ho         1 9K5       0.394000
@<TRIPOS>BOND
     1     1     2 ar  
     2     1    23 ar  
     3     1    31 1   
     4     2     3 ar  
     5     2    17 1   
     6     3    18 ar  
     7     3    32 1   
     8     4     7 1   
     9     4    10 1   
    10     5     9 1   
    11     5    47 1   
    12     6     7 1   
    13     6    24 1   
    14     6    33 1   
    15     6    34 1   
    16     7     8 1   
    17     7    35 1   
    18     8     9 1   
    19     8    25 1   
    20     8    36 1   
    21     9    10 1   
    22     9    37 1   
    23    10    26 1   
    24    10    38 1   
    25    11    26 1   
    26    11    30 2   
    27    11    39 1   
    28    12    13 ar  
    29    12    15 ar  
    30    12    30 1   
    31    13    26 1   
    32    13    27 ar  
    33    14    27 ar  
    34    14    28 ar  
    35    14    40 1   
    36    15    28 ar  
    37    15    29 1   
    38    16    17 2   
    39    17    24 1   
    40    18    19 1   
    41    18    22 ar  
    42    19    20 2   
    43    19    21 2   
    44    19    46 1   
    45    22    23 ar  
    46    22    41 1   
    47    23    42 1   
    48    25    43 1   
    49    29    44 1   
    50    29    45 1   
@<TRIPOS>SUBSTRUCTURE
     1 9K5         1 TEMP              0 ****  ****    0 ROOT
