@<TRIPOS>MOLECULE
9K6
   40    42     1     0     0
SMALL
bcc


@<TRIPOS>ATOM
      1 C6           0.0000     0.0000     0.0000 ca         1 9K6      -0.145500
      2 C4          -3.3450    -2.3710    -0.2970 c3         1 9K6      -0.099400
      3 C2          -0.3130    -3.4230    -0.6920 c3         1 9K6       0.116800
      4 C8           0.0400     0.0110     2.4380 ca         1 9K6      -0.193300
      5 C10         -2.6910     0.0120     2.5120 ca         1 9K6       0.418200
      6 C13          2.0810     0.0000     1.1950 ca         1 9K6      -0.148000
      7 C1           0.4030    -2.2260    -2.7550 c3         1 9K6      -0.066100
      8 S           -0.8880    -0.0010    -1.5220 sy         1 9K6       1.059200
      9 O            0.0850     0.0800    -2.5530 o          1 9K6      -0.593800
     10 N           -1.6060    -1.4850    -1.6700 n3         1 9K6      -0.504500
     11 C5          -3.0950    -1.6310    -1.5390 c3         1 9K6       0.237800
     12 C3          -2.6790    -3.7410    -0.2480 c3         1 9K6       0.143800
     13 N1          -1.3830    -3.5170     0.3380 n7         1 9K6      -0.580200
     14 C           -0.8160    -2.6500    -1.9330 c3         1 9K6       0.201500
     15 C14          1.3620     0.0000     0.0000 ca         1 9K6       0.034000
     16 C12          1.4430     0.0100     2.3980 ca         1 9K6      -0.011000
     17 C9          -0.6710     0.0230     3.6490 ca         1 9K6       0.437200
     18 N2          -1.9840     0.0230     3.6350 nb         1 9K6      -0.591000
     19 C11         -2.0950     0.0060     1.2880 ca         1 9K6      -0.243300
     20 C7          -0.6900     0.0050     1.2210 ca         1 9K6       0.079000
     21 H2          -2.9770    -1.7810     0.5340 hc         1 9K6       0.039200
     22 H3           0.5400    -2.9040    -0.2720 h1         1 9K6       0.013700
     23 H4          -0.0190    -4.4210    -0.9910 h1         1 9K6       0.013700
     24 H5          -3.7720     0.0130     2.5710 h4         1 9K6      -0.021900
     25 H6           3.1640    -0.0000     1.1650 ha         1 9K6       0.110000
     26 H7           1.1120    -1.7170    -2.1140 hc         1 9K6       0.033700
     27 H8           0.0880    -1.5580    -3.5480 hc         1 9K6       0.033700
     28 H9           0.8700    -3.1030    -3.1860 hc         1 9K6       0.033700
     29 H10         -3.4870    -2.1860    -2.3830 h1         1 9K6       0.033200
     30 H11         -3.5570    -0.6530    -1.4850 h1         1 9K6       0.033200
     31 H12         -2.5720    -4.1400    -1.2500 h1         1 9K6       0.014700
     32 H13         -3.2570    -4.4160     0.3710 h1         1 9K6       0.014700
     33 H14         -1.1700    -4.2610     0.9730 hn         1 9K6       0.250800
     34 H16         -1.4120    -3.3300    -2.5300 h1         1 9K6       0.025700
     35 H17          1.8950    -0.0080    -0.9430 ha         1 9K6       0.128000
     36 H18          2.0140     0.0100     3.3190 ha         1 9K6       0.105000
     37 H19         -0.1380     0.0320     4.5920 h4         1 9K6      -0.019900
     38 H20         -2.6910    -0.0030     0.3830 ha         1 9K6       0.161000
     39 H1          -4.4140    -2.5040    -0.1860 hc         1 9K6       0.039200
     40 O1          -1.9410     0.9410    -1.3710 o          1 9K6      -0.593800
@<TRIPOS>BOND
     1     1     8 1   
     2     1    15 ar  
     3     1    20 ar  
     4     2    11 1   
     5     2    12 1   
     6     2    21 1   
     7     2    39 1   
     8     3    13 1   
     9     3    14 1   
    10     3    22 1   
    11     3    23 1   
    12     4    16 ar  
    13     4    17 ar  
    14     4    20 ar  
    15     5    18 ar  
    16     5    19 ar  
    17     5    24 1   
    18     6    15 ar  
    19     6    16 ar  
    20     6    25 1   
    21     7    14 1   
    22     7    26 1   
    23     7    27 1   
    24     7    28 1   
    25     8     9 2   
    26     8    10 1   
    27     8    40 2   
    28    10    11 1   
    29    10    14 1   
    30    11    29 1   
    31    11    30 1   
    32    12    13 1   
    33    12    31 1   
    34    12    32 1   
    35    13    33 1   
    36    14    34 1   
    37    15    35 1   
    38    16    36 1   
    39    17    18 ar  
    40    17    37 1   
    41    19    20 ar  
    42    19    38 1   
@<TRIPOS>SUBSTRUCTURE
     1 9K6         1 TEMP              0 ****  ****    0 ROOT
