@<TRIPOS>MOLECULE
9K7
   60    63     1     0     0
SMALL
bcc


@<TRIPOS>ATOM
      1 C26          0.0000     0.0000     0.0000 c3         1 9K7      -0.038000
      2 C25          1.5070     0.0000     0.0000 c          1 9K7       0.565100
      3 C27          1.4480    -0.0010     2.4360 c3         1 9K7       0.070300
      4 N4           6.9800     5.8430     1.1870 n1         1 9K7      -0.376800
      5 C22          3.6040     2.4500     1.1590 ca         1 9K7      -0.078000
      6 C21          4.3010     3.6150     1.1600 ca         1 9K7      -0.084000
      7 N3           2.1810     0.0000     1.1680 n          1 9K7      -0.040000
      8 C20          5.7080     3.6120     1.1660 ca         1 9K7       0.038000
      9 C1           4.4090    -5.1120    -0.3210 ca         1 9K7      -0.197000
     10 C2           5.1570    -3.9530    -0.2050 ca         1 9K7       0.140100
     11 C7           4.9900    -3.7220    -2.5660 c3         1 9K7       0.175400
     12 C6           4.0950    -5.8470     0.8060 ca         1 9K7      -0.053000
     13 C5           4.5240    -5.4280     2.0510 ca         1 9K7      -0.132000
     14 C4           5.2720    -4.2710     2.1740 ca         1 9K7      -0.077000
     15 C3           5.5920    -3.5300     1.0480 ca         1 9K7       0.054100
     16 C8           5.4350    -2.7820    -3.6890 c3         1 9K7       0.030000
     17 C9           7.4910    -3.6970    -4.6090 c          1 9K7       0.586500
     18 C10          9.6020    -2.8870    -4.0240 c          1 9K7       0.612700
     19 C11          8.9900    -1.9430    -3.1640 cc         1 9K7      -0.303200
     20 C12          7.6430    -1.9210    -3.0660 cd         1 9K7      -0.076400
     21 C13          5.6660    -1.2030     1.1680 ca         1 9K7       0.146100
     22 O1           6.3250    -2.3910     1.1670 os         1 9K7      -0.202200
     23 N1           6.8960    -2.8050    -3.7950 n          1 9K7       0.048000
     24 C14          6.3810    -0.0280     1.1700 ca         1 9K7      -0.108300
     25 N2           8.8310    -3.7410    -4.7250 ns         1 9K7      -0.124500
     26 C15          5.7030     1.2030     1.1700 ca         1 9K7      -0.003000
     27 C19          6.4080     2.4170     1.1710 ca         1 9K7      -0.064000
     28 O5           2.1140     0.0010    -1.0500 o          1 9K7      -0.611100
     29 C16          4.2860     1.2210     1.1690 ca         1 9K7      -0.039000
     30 C17          3.5770     0.0010     1.1680 ca         1 9K7      -0.039400
     31 C18          4.2690    -1.1900     1.1680 ca         1 9K7      -0.141000
     32 O3           6.8080    -4.4770    -5.2440 o          1 9K7      -0.713500
     33 Cl1         -0.6000     0.0010    -1.7000 cl         1 9K7      -0.065400
     34 H1          -0.3610     0.9990     0.2100 h1         1 9K7       0.042200
     35 H2          -0.3610    -0.6820     0.7600 h1         1 9K7       0.042200
     36 H3           0.7170     0.7980     2.4310 h1         1 9K7       0.013367
     37 H4           2.1420     0.1490     3.2540 h1         1 9K7       0.013367
     38 H5           0.9430    -0.9510     2.5600 h1         1 9K7       0.013367
     39 H6           8.2280    -1.0720     1.3570 hc         1 9K7       0.016700
     40 H7           8.2570     0.2720     0.2070 hc         1 9K7       0.016700
     41 H8           8.2640     0.5960     1.9460 hc         1 9K7       0.016700
     42 H9           2.5210     2.4680     1.1540 ha         1 9K7       0.109000
     43 H10          3.7750     4.5610     1.1400 ha         1 9K7       0.113000
     44 H11          4.0700    -5.4430    -1.2960 ha         1 9K7       0.128000
     45 H12          5.5700    -4.6360    -2.6100 h1         1 9K7       0.022700
     46 H13          3.9390    -3.9550    -2.6860 h1         1 9K7       0.022700
     47 H14          3.5090    -6.7550     0.7160 ha         1 9K7       0.106000
     48 H15          4.2760    -6.0060     2.9330 ha         1 9K7       0.111000
     49 H16          5.6070    -3.9440     3.1510 ha         1 9K7       0.118000
     50 H17          5.1050    -1.7740    -3.4680 h1         1 9K7       0.057700
     51 H18          5.0000    -3.1070    -4.6260 h1         1 9K7       0.057700
     52 H19          9.5990    -1.2400    -2.6090 ha         1 9K7       0.150000
     53 H20          7.1580    -1.2060    -2.4130 h4         1 9K7       0.142000
     54 H21          9.2560    -4.3730    -5.3740 hn         1 9K7       0.205500
     55 H22          7.4920     2.4240     1.1760 ha         1 9K7       0.125000
     56 H23          3.7190    -2.1210     1.2370 ha         1 9K7       0.129000
     57 C24          7.8880    -0.0600     1.1700 c3         1 9K7       0.062200
     58 C23          6.4220     4.8540     1.1680 cg         1 9K7       0.226800
     59 O2           5.4690    -3.2280    -1.3140 os         1 9K7      -0.302900
     60 O4          10.8150    -2.9250    -4.1280 o          1 9K7      -0.658500
@<TRIPOS>BOND
     1     1     2 1   
     2     1    33 1   
     3     1    34 1   
     4     1    35 1   
     5     2     7 1   
     6     2    28 2   
     7     3     7 1   
     8     3    36 1   
     9     3    37 1   
    10     3    38 1   
    11     4    58 3   
    12     5     6 ar  
    13     5    29 ar  
    14     5    42 1   
    15     6     8 ar  
    16     6    43 1   
    17     7    30 1   
    18     8    27 ar  
    19     8    58 1   
    20     9    10 ar  
    21     9    12 ar  
    22     9    44 1   
    23    10    15 ar  
    24    10    59 1   
    25    11    16 1   
    26    11    45 1   
    27    11    46 1   
    28    11    59 1   
    29    12    13 ar  
    30    12    47 1   
    31    13    14 ar  
    32    13    48 1   
    33    14    15 ar  
    34    14    49 1   
    35    15    22 1   
    36    16    23 1   
    37    16    50 1   
    38    16    51 1   
    39    17    23 1   
    40    17    25 1   
    41    17    32 2   
    42    18    19 1   
    43    18    25 1   
    44    18    60 2   
    45    19    20 2   
    46    19    52 1   
    47    20    23 1   
    48    20    53 1   
    49    21    22 1   
    50    21    24 ar  
    51    21    31 ar  
    52    24    26 ar  
    53    24    57 1   
    54    25    54 1   
    55    26    27 ar  
    56    26    29 ar  
    57    27    55 1   
    58    29    30 ar  
    59    30    31 ar  
    60    31    56 1   
    61    39    57 1   
    62    40    57 1   
    63    41    57 1   
@<TRIPOS>SUBSTRUCTURE
     1 9K7         1 TEMP              0 ****  ****    0 ROOT
