@<TRIPOS>MOLECULE
molecule
   53    56     1     0     0
SMALL
bcc


@<TRIPOS>ATOM
      1 C1           0.0000     0.0000     0.0000 c3         1 9K8      -0.078100
      2 C2           1.5070     0.0000     0.0000 ca         1 9K8       0.036700
      3 C3           2.1960     0.0000     1.1990 ca         1 9K8      -0.157000
      4 O4           8.1560    -1.2380     3.1740 os         1 9K8      -0.406600
      5 O5          11.2100    -0.1080     4.5680 oh         1 9K8      -0.558800
      6 C7           2.1960    -0.0050    -1.2010 ca         1 9K8      -0.335500
      7 C9           7.8780     0.0030     1.0890 c3         1 9K8       0.157400
      8 C10          8.4630     0.0030     2.5030 c3         1 9K8       0.125100
      9 C11         10.0060     0.0500     2.4460 c3         1 9K8       0.094100
     10 C12         10.4530    -0.8570     3.6140 c3         1 9K8       0.090100
     11 C13          9.1260    -1.3440     4.2390 c3         1 9K8       0.255800
     12 C14          8.9480    -3.8440     3.9430 cc         1 9K8       0.426700
     13 C15          9.6420    -4.5680     5.8650 ca         1 9K8      -0.213200
     14 C16          9.6950    -3.1640     5.9030 ca         1 9K8       0.477800
     15 O2           6.3610     0.0020    -1.0540 o          1 9K8      -0.546000
     16 C5           4.2770     0.0010    -0.0010 ca         1 9K8      -0.154600
     17 C4           3.5760     0.0000     1.2060 ca         1 9K8      -0.019000
     18 C6           3.5750    -0.0050    -1.2090 ca         1 9K8       0.050000
     19 S            1.3080    -0.0140    -2.7220 sy         1 9K8       1.519000
     20 O1           1.1060     1.3480    -3.0760 o          1 9K8      -0.610300
     21 O            1.9690    -0.9450    -3.5680 o          1 9K8      -0.610300
     22 C           -0.5090    -1.4370    -0.1260 c3         1 9K8      -0.083100
     23 O3           6.4280     0.0030     1.1650 os         1 9K8      -0.418900
     24 O6          10.4740     1.3860     2.6420 oh         1 9K8      -0.568800
     25 N            9.2510    -2.7370     4.6780 na         1 9K8      -0.255000
     26 N2          10.1220    -2.5630     7.0080 nb         1 9K8      -0.790000
     27 C17         10.4920    -3.2700     8.0570 ca         1 9K8       0.742900
     28 N3          10.4600    -4.5900     8.0680 nb         1 9K8      -0.836000
     29 C18         10.0480    -5.2780     7.0090 ca         1 9K8       0.789200
     30 N4          10.0170    -6.6610     7.0310 nv         1 9K8      -0.982500
     31 N1           9.1780    -4.9180     4.6420 nd         1 9K8      -0.586100
     32 F           -0.1490    -0.6270    -2.4220 f          1 9K8      -0.264900
     33 H1          -0.3610     0.5860    -0.8370 hc         1 9K8       0.064200
     34 H2          -0.3610     0.4320     0.9260 hc         1 9K8       0.064200
     35 H3           1.6510    -0.0010     2.1350 ha         1 9K8       0.147000
     36 H5           8.2120     0.8880     0.5600 h1         1 9K8       0.063700
     37 H6           8.2130    -0.8810     0.5600 h1         1 9K8       0.063700
     38 H7           8.0830     0.8420     3.0740 h1         1 9K8       0.090700
     39 H8          10.3610    -0.3470     1.5020 h1         1 9K8       0.051700
     40 H9          11.0260    -1.6970     3.2410 h1         1 9K8       0.059700
     41 H10          8.8450    -0.7050     5.0670 h2         1 9K8       0.114700
     42 H11          8.5710    -3.8330     2.9280 h5         1 9K8       0.087800
     43 H12          4.1140     0.0000     2.1460 ha         1 9K8       0.159000
     44 H13          4.1130    -0.0090    -2.1490 ha         1 9K8       0.171000
     45 H15         -1.4460    -1.4420    -0.6690 hc         1 9K8       0.045367
     46 H16         -0.6630    -1.8540     0.8630 hc         1 9K8       0.045367
     47 H17          0.2210    -2.0340    -0.6590 hc         1 9K8       0.045367
     48 H18         11.0690     1.6160     1.9480 ho         1 9K8       0.407000
     49 H19         10.8350    -2.7490     8.9420 h5         1 9K8       0.063100
     50 H20         10.3150    -7.1560     7.8480 hn         1 9K8       0.450800
     51 H21          9.6970    -7.1670     6.2290 hn         1 9K8       0.450800
     52 C8           5.7540     0.0010    -0.0010 c          1 9K8       0.652700
     53 H4          12.1240    -0.3240     4.4830 ho         1 9K8       0.410000
@<TRIPOS>BOND
     1     1     2 1
     2     1    22 1
     3     2     3 ar
     4     2     6 ar
     5     3    17 ar
     6     4     8 1
     7     4    11 1
     8     5    10 1
     9     6    18 ar
    10     6    19 1
    11    52    15 2
    12    52    16 1
    13    52    23 1
    14     7     8 1
    15     7    23 1
    16     8     9 1
    17     9    10 1
    18     9    24 1
    19    10    11 1
    20    11    25 1
    21    12    25 1
    22    12    31 2
    23    13    14 ar
    24    13    29 ar
    25    13    31 1
    26    14    25 1
    27    14    26 ar
    28    16    17 ar
    29    16    18 ar
    30    19    20 2
    31    19    21 2
    32    19    32 1
    33    26    27 ar
    34    27    28 ar
    35    28    29 ar
    36    29    30 1
    37     1    33 1
    38     1    34 1
    39     3    35 1
    40     5    53 1
    41     7    36 1
    42     7    37 1
    43     8    38 1
    44     9    39 1
    45    10    40 1
    46    11    41 1
    47    12    42 1
    48    17    43 1
    49    18    44 1
    50    22    45 1
    51    22    46 1
    52    22    47 1
    53    24    48 1
    54    27    49 1
    55    30    50 1
    56    30    51 1
@<TRIPOS>SUBSTRUCTURE
     1 9K8         1 TEMP              0 ****  ****    0 ROOT
