@<TRIPOS>MOLECULE
9K9
   36    39     1     0     0
SMALL
bcc


@<TRIPOS>ATOM
      1 O            0.0000     0.0000     0.0000 o          1 9K9      -0.461100
      2 C2           1.2210     0.0000     0.0000 c          1 9K9       0.605000
      3 C            1.9690     0.0000     1.2620 cc         1 9K9       0.248800
      4 N3           1.6230     0.0010     2.5690 nc         1 9K9      -0.494000
      5 C4           2.7020     0.0020     3.2970 cd         1 9K9       0.298400
      6 N1           1.9060    -0.0060    -1.1530 nc         1 9K9      -0.509100
      7 C3           3.2220    -0.0060    -1.1680 cd         1 9K9       0.214100
      8 N4           3.8680    -0.0120    -2.3750 nz         1 9K9       0.194400
      9 N            3.9650    -0.0010    -0.0300 na         1 9K9      -0.100600
     10 C1           3.3580    -0.0000     1.1990 cd         1 9K9      -0.384000
     11 N2           3.8000     0.0010     2.4860 na         1 9K9       0.298100
     12 C5           5.1980     0.0010     2.9210 c3         1 9K9       0.134800
     13 C6           5.7360     1.4480     2.9560 c3         1 9K9       0.084100
     14 O3           6.9260     1.4960     2.1310 os         1 9K9      -0.413200
     15 O1           5.2950    -0.5230     4.2560 os         1 9K9      -0.370600
     16 C8           6.3660     0.1880     4.9130 c3         1 9K9       0.160100
     17 C9           6.2130     0.1070     6.4340 c3         1 9K9       0.233400
     18 O2           6.3970    -1.2440     6.8600 oh         1 9K9      -0.584800
     19 C7           6.1850     1.6450     4.4240 c3         1 9K9       0.140100
     20 O4           7.4410     2.3310     4.4720 os         1 9K9      -0.379200
     21 P            7.8300     2.6080     2.9150 p5         1 9K9       1.202500
     22 O6           7.4150     4.0990     2.4750 oh         1 9K9      -0.648400
     23 O5           9.2730     2.3730     2.6820 o          1 9K9      -0.592300
     24 H1           2.7260     0.0030     4.3800 h5         1 9K9       0.056100
     25 H2           4.4580     0.7930    -2.4420 hn         1 9K9       0.225800
     26 H3           3.1930     0.0060    -3.1140 hn         1 9K9       0.225800
     27 H4           4.9640    -0.0010    -0.0900 hn         1 9K9       0.277800
     28 H5           5.8000    -0.5970     2.2480 h2         1 9K9       0.055700
     29 H6           4.9910     2.1730     2.6520 h1         1 9K9       0.050700
     30 H7           7.3270    -0.2010     4.5980 h1         1 9K9       0.057700
     31 H8           5.2230     0.4440     6.7160 h1         1 9K9       0.004200
     32 H9           6.9570     0.7390     6.9050 h1         1 9K9       0.004200
     33 H10          6.3410    -1.2880     7.8000 ho         1 9K9       0.408000
     34 H11          5.4280     2.1620     5.0010 h1         1 9K9       0.057700
     35 H12          8.1900     4.6300     2.3930 ho         1 9K9       0.473000
     36 H43          4.4240    -0.8410    -2.4520 hn         1 9K9       0.225800
@<TRIPOS>BOND
     1     1     2 2   
     2     2     3 1   
     3     2     6 1   
     4     3     4 1   
     5     3    10 2   
     6     4     5 2   
     7     5    11 1   
     8     5    24 1   
     9     6     7 2   
    10     7     8 1   
    11     7     9 1   
    12     8    25 1   
    13     8    26 1   
    14     8    36 1   
    15     9    10 1   
    16     9    27 1   
    17    10    11 1   
    18    11    12 1   
    19    12    13 1   
    20    12    15 1   
    21    12    28 1   
    22    13    14 1   
    23    13    19 1   
    24    13    29 1   
    25    14    21 1   
    26    15    16 1   
    27    16    17 1   
    28    16    19 1   
    29    16    30 1   
    30    17    18 1   
    31    17    31 1   
    32    17    32 1   
    33    18    33 1   
    34    19    20 1   
    35    19    34 1   
    36    20    21 1   
    37    21    22 1   
    38    21    23 2   
    39    22    35 1   
@<TRIPOS>SUBSTRUCTURE
     1 9K9         1 TEMP              0 ****  ****    0 ROOT
