@<TRIPOS>MOLECULE
molecule
   36    39     1     0     0
SMALL
bcc


@<TRIPOS>ATOM
      1 O            0.0000     0.0000     0.0000 o          1 9K9      -0.422100
      2 C2           1.2210     0.0000     0.0000 c          1 9K9       0.626000
      3 C            1.9690     0.0000     1.2620 cc         1 9K9       0.274800
      4 N3           1.6230     0.0010     2.5690 nc         1 9K9      -0.599000
      5 C4           2.7020     0.0020     3.2970 cd         1 9K9       0.479400
      6 N1           1.9060    -0.0060    -1.1530 nc         1 9K9      -0.644100
      7 C3           3.2220    -0.0060    -1.1680 cd         1 9K9       0.691100
      8 N4           3.8680    -0.0120    -2.3750 nz         1 9K9      -0.744600
      9 N            3.9650    -0.0010    -0.0300 na         1 9K9      -0.668600
     10 C1           3.3580    -0.0000     1.1990 cd         1 9K9      -0.018000
     11 N2           3.8000     0.0010     2.4860 na         1 9K9      -0.195900
     12 C5           5.1980     0.0010     2.9210 c3         1 9K9       0.252800
     13 C6           5.7360     1.4480     2.9560 c3         1 9K9       0.012100
     14 O3           6.9260     1.4960     2.1310 os         1 9K9      -0.476200
     15 O1           5.2950    -0.5230     4.2560 os         1 9K9      -0.373600
     16 C8           6.3660     0.1880     4.9130 c3         1 9K9       0.134100
     17 C9           6.2130     0.1070     6.4340 c3         1 9K9       0.155400
     18 O2           6.3970    -1.2440     6.8600 oh         1 9K9      -0.596800
     19 C7           6.1850     1.6450     4.4240 c3         1 9K9       0.071100
     20 O4           7.4410     2.3310     4.4720 os         1 9K9      -0.446200
     21 P            7.8300     2.6080     2.9150 p5         1 9K9       1.468500
     22 O6           7.4150     4.0990     2.4750 oh         1 9K9      -0.718400
     23 O5           9.2730     2.3730     2.6820 o          1 9K9      -0.727300
     24 H1           2.7260     0.0030     4.3800 h5         1 9K9       0.110100
     25 H2           4.4580     0.7930    -2.4420 hn         1 9K9       0.485800
     26 H3           3.1930     0.0060    -3.1140 hn         1 9K9       0.485800
     27 H4           4.9640    -0.0010    -0.0900 hn         1 9K9       0.456800
     28 H5           5.8000    -0.5970     2.2480 h2         1 9K9       0.101700
     29 H6           4.9910     2.1730     2.6520 h1         1 9K9       0.108700
     30 H7           7.3270    -0.2010     4.5980 h1         1 9K9       0.100700
     31 H8           5.2230     0.4440     6.7160 h1         1 9K9       0.048200
     32 H9           6.9570     0.7390     6.9050 h1         1 9K9       0.048200
     33 H10          6.3410    -1.2880     7.8000 ho         1 9K9       0.425000
     34 H11          5.4280     2.1620     5.0010 h1         1 9K9       0.116700
     35 H12          8.1900     4.6300     2.3930 ho         1 9K9       0.494000
     36 H43          4.4240    -0.8410    -2.4520 hn         1 9K9       0.485800
@<TRIPOS>BOND
     1     1     2 2
     2     4     3 1
     3     4     5 2
     4     2     3 1
     5     2     6 1
     6     3    10 2
     7     6     7 2
     8     5    11 1
     9    10    11 1
    10    10     9 1
    11    11    12 1
    12     7     9 1
    13     7     8 1
    14    15    12 1
    15    15    16 1
    16    12    13 1
    17    18    17 1
    18    17    16 1
    19    16    19 1
    20    13    14 1
    21    13    19 1
    22    14    21 1
    23    19    20 1
    24    20    21 1
    25    21    23 2
    26    21    22 1
    27     5    24 1
    28     8    25 1
    29     8    26 1
    30     9    27 1
    31    12    28 1
    32    13    29 1
    33    16    30 1
    34    17    31 1
    35    17    32 1
    36    18    33 1
    37    19    34 1
    38    22    35 1
    39    36     8 1
@<TRIPOS>SUBSTRUCTURE
     1 9K9         1 TEMP              0 ****  ****    0 ROOT
