@<TRIPOS>MOLECULE
9KD
   58    61     1     0     0
SMALL
bcc


@<TRIPOS>ATOM
      1 C1           0.0000     0.0000     0.0000 ca         1 9KD      -0.168000
      2 C2           1.3850     0.0000     0.0000 ca         1 9KD       0.093100
      3 C4           1.3790     0.0010     2.4040 ca         1 9KD      -0.201000
      4 O5           3.9010     3.3510     3.6590 o          1 9KD      -0.654100
      5 C7           1.2900    -0.0030    -2.3770 c3         1 9KD       0.127400
      6 C9           2.4900    -2.3200    -4.2770 c          1 9KD       0.603500
      7 C11          4.8890    -2.4870    -3.0010 cc         1 9KD      -0.300200
      8 C13          4.0710     0.0970     2.4100 ca         1 9KD       0.130100
      9 C14          4.2240    -1.0260     3.1930 ca         1 9KD      -0.098300
     10 C15          4.8740    -0.9290     4.4360 ca         1 9KD      -0.028000
     11 C16          5.3660     0.3280     4.8720 ca         1 9KD      -0.039000
     12 C17          5.1960     1.4620     4.0490 ca         1 9KD      -0.119400
     13 C19          5.0420    -2.0580     5.2520 ca         1 9KD      -0.038000
     14 C21          6.1690    -0.6740     6.8930 ca         1 9KD      -0.063000
     15 C22          6.0140     0.4280     6.1140 ca         1 9KD      -0.107000
     16 C24          3.6960    -2.3550     2.7180 c3         1 9KD      -0.004800
     17 C25          5.0060     3.8290     4.1330 c          1 9KD       0.580300
     18 C26          5.5740     5.1450     4.4570 ce         1 9KD      -0.205200
     19 C27          4.9150     6.2530     4.1310 c2         1 9KD      -0.047000
     20 C3           2.0780     0.0000     1.2070 ca         1 9KD       0.121100
     21 C5          -0.0030     0.0130     2.3970 ca         1 9KD      -0.125000
     22 C6          -0.6910     0.0060     1.1980 ca         1 9KD      -0.054000
     23 O1           3.4380    -0.0010     1.2130 os         1 9KD      -0.212200
     24 O2           2.0660    -0.0020    -1.1770 os         1 9KD      -0.325900
     25 C8           2.2230    -0.0040    -3.5880 c3         1 9KD       0.069000
     26 N1           2.9830    -1.2560    -3.6180 n          1 9KD       0.036000
     27 N2           3.1670    -3.4820    -4.3200 ns         1 9KD      -0.143500
     28 C10          4.3580    -3.5980    -3.6990 c          1 9KD       0.582700
     29 C12          4.1890    -1.3330    -2.9750 cd         1 9KD      -0.043400
     30 C18          4.5550     1.3360     2.8370 ca         1 9KD      -0.116000
     31 C20          5.6870    -1.9260     6.4720 ca         1 9KD       0.008000
     32 O4           4.9720    -4.6500    -3.7380 o          1 9KD      -0.660500
     33 N3           5.6730     2.7050     4.4640 ns         1 9KD      -0.084100
     34 N4           5.9930    -3.9740     7.9900 n1         1 9KD      -0.379800
     35 H1          -0.3440     0.0540    -1.0260 ha         1 9KD       0.129000
     36 H2           1.8710    -0.2810     3.3270 ha         1 9KD       0.132000
     37 H3           0.4870    -0.7300    -2.3990 h1         1 9KD       0.033700
     38 H4           0.8020     0.8730    -1.9670 h1         1 9KD       0.033700
     39 H5           5.8650    -2.8000    -2.6500 ha         1 9KD       0.164000
     40 H6           4.6720    -3.0320     4.9590 ha         1 9KD       0.122000
     41 H7           6.6560    -0.6950     7.8600 ha         1 9KD       0.113000
     42 H8           6.5050     1.3680     6.3380 ha         1 9KD       0.110000
     43 H9           4.3820    -2.3680     1.8800 hc         1 9KD       0.040033
     44 H10          3.6430    -3.3050     3.2360 hc         1 9KD       0.040033
     45 H11          2.8870    -1.8820     2.1750 hc         1 9KD       0.040033
     46 H12          6.2560     5.3120     5.2820 ha         1 9KD       0.120000
     47 H13          3.9440     6.1340     3.6660 ha         1 9KD       0.095500
     48 H14          5.2650     7.1790     4.5710 ha         1 9KD       0.095500
     49 H15         -0.0910    -0.0850     3.4720 ha         1 9KD       0.131000
     50 H16         -1.6470     0.4900     1.3570 ha         1 9KD       0.110000
     51 H17          1.5030     0.3710    -4.3070 h1         1 9KD       0.047700
     52 H18          2.9790     0.7720    -3.5840 h1         1 9KD       0.047700
     53 H19          2.9560    -4.4210    -4.5950 hn         1 9KD       0.216500
     54 H20          4.2900    -0.3350    -2.5650 h4         1 9KD       0.140000
     55 H21          4.5360     2.3710     2.5150 ha         1 9KD       0.192000
     56 H22          5.9710     2.3800     5.3620 hn         1 9KD       0.193500
     57 C23          5.8610    -3.0740     7.3100 cg         1 9KD       0.229800
     58 O3           1.4140    -2.2320    -4.8370 o          1 9KD      -0.710500
@<TRIPOS>BOND
     1     1     2 ar  
     2     1    22 ar  
     3     1    35 1   
     4     2    20 ar  
     5     2    24 1   
     6     3    20 ar  
     7     3    21 ar  
     8     3    36 1   
     9     4    17 2   
    10     5    24 1   
    11     5    25 1   
    12     5    37 1   
    13     5    38 1   
    14     6    26 1   
    15     6    27 1   
    16     6    58 2   
    17     7    28 1   
    18     7    29 2   
    19     7    39 1   
    20     8     9 ar  
    21     8    23 1   
    22     8    30 ar  
    23     9    10 ar  
    24     9    16 1   
    25    10    11 ar  
    26    10    13 ar  
    27    11    12 ar  
    28    11    15 ar  
    29    12    30 ar  
    30    12    33 1   
    31    13    31 ar  
    32    13    40 1   
    33    14    15 ar  
    34    14    31 ar  
    35    14    41 1   
    36    15    42 1   
    37    16    43 1   
    38    16    44 1   
    39    16    45 1   
    40    17    18 1   
    41    17    33 1   
    42    18    19 2   
    43    18    46 1   
    44    19    47 1   
    45    19    48 1   
    46    20    23 1   
    47    21    22 ar  
    48    21    49 1   
    49    22    50 1   
    50    25    26 1   
    51    25    51 1   
    52    25    52 1   
    53    26    29 1   
    54    27    28 1   
    55    27    53 1   
    56    28    32 2   
    57    29    54 1   
    58    30    55 1   
    59    31    57 1   
    60    33    56 1   
    61    34    57 3   
@<TRIPOS>SUBSTRUCTURE
     1 9KD         1 TEMP              0 ****  ****    0 ROOT
