@<TRIPOS>MOLECULE
molecule
   58    61     1     0     0
SMALL
bcc


@<TRIPOS>ATOM
      1 C1           0.0000     0.0000     0.0000 ca         1 9KD      -0.189000
      2 C2           1.3850     0.0000     0.0000 ca         1 9KD       0.118100
      3 C4           1.3790     0.0010     2.4040 ca         1 9KD      -0.167000
      4 O5           3.9930     3.6700     3.5460 o          1 9KD      -0.578100
      5 C7           1.2900    -0.0030    -2.3770 c3         1 9KD       0.111400
      6 C9           2.4900    -2.3200    -4.2770 c          1 9KD       0.806500
      7 C11          4.8890    -2.4870    -3.0010 cc         1 9KD      -0.332200
      8 C13          4.0710     0.0970     2.4100 ca         1 9KD       0.114100
      9 C14          4.2240    -1.0260     3.1930 ca         1 9KD      -0.094300
     10 C15          4.8740    -0.9290     4.4360 ca         1 9KD      -0.028000
     11 C16          5.3660     0.3280     4.8720 ca         1 9KD      -0.034000
     12 C17          5.1960     1.4620     4.0490 ca         1 9KD       0.062600
     13 C19          5.0420    -2.0580     5.2520 ca         1 9KD      -0.067000
     14 C21          6.1690    -0.6740     6.8930 ca         1 9KD      -0.097000
     15 C22          6.0140     0.4280     6.1140 ca         1 9KD      -0.117000
     16 C24          3.6960    -2.3550     2.7180 c3         1 9KD      -0.053800
     17 C25          5.0060     3.8290     4.1330 c          1 9KD       0.671300
     18 C26          5.5740     5.1450     4.4570 ce         1 9KD      -0.257200
     19 C27          4.9150     6.2530     4.1310 c2         1 9KD      -0.121000
     20 C3           2.0780     0.0000     1.2070 ca         1 9KD       0.109100
     21 C5          -0.0030     0.0130     2.3970 ca         1 9KD      -0.126000
     22 C6          -0.6910     0.0060     1.1980 ca         1 9KD      -0.121000
     23 O1           3.4380    -0.0010     1.2130 os         1 9KD      -0.239200
     24 O2           2.0660    -0.0020    -1.1770 os         1 9KD      -0.329900
     25 C8           2.2230    -0.0040    -3.5880 c3         1 9KD       0.118000
     26 N1           2.9830    -1.2560    -3.6180 n          1 9KD      -0.365000
     27 N2           3.1670    -3.4820    -4.3200 ns         1 9KD      -0.559500
     28 C10          4.3580    -3.5980    -3.6990 c          1 9KD       0.702700
     29 C12          4.1890    -1.3330    -2.9750 cd         1 9KD       0.056600
     30 C18          4.5550     1.3360     2.8370 ca         1 9KD      -0.123000
     31 C20          5.6870    -1.9260     6.4720 ca         1 9KD      -0.017000
     32 O4           4.9720    -4.6500    -3.7380 o          1 9KD      -0.622500
     33 N3           5.6730     2.7050     4.4640 ns         1 9KD      -0.487100
     34 N4           6.0170    -3.9760     7.9820 n1         1 9KD      -0.358800
     35 H1          -0.5420     0.0000    -0.9380 ha         1 9KD       0.141000
     36 H2           1.9160     0.0010     3.3450 ha         1 9KD       0.153000
     37 H3           0.6320     0.8580    -2.3820 h1         1 9KD       0.055700
     38 H4           0.6990    -0.9090    -2.4230 h1         1 9KD       0.055700
     39 H5           5.8560    -2.5610    -2.5180 ha         1 9KD       0.180000
     40 H6           4.6700    -3.0220     4.9280 ha         1 9KD       0.152000
     41 H7           6.6690    -0.5940     7.8500 ha         1 9KD       0.142000
     42 H8           6.3920     1.3860     6.4510 ha         1 9KD       0.137000
     43 H9           3.2060    -2.2280     1.7600 hc         1 9KD       0.054700
     44 H10          4.5180    -3.0530     2.6130 hc         1 9KD       0.054700
     45 H11          2.9850    -2.7400     3.4390 hc         1 9KD       0.054700
     46 H12          6.5310     5.2130     4.9610 ha         1 9KD       0.132000
     47 H13          5.3340     7.2230     4.3700 ha         1 9KD       0.132000
     48 H14          3.9590     6.1860     3.6260 ha         1 9KD       0.132000
     49 H15         -0.5490     0.0140     3.3320 ha         1 9KD       0.136000
     50 H16         -1.7740     0.0060     1.1990 ha         1 9KD       0.134000
     51 H17          1.6480     0.1840    -4.4870 h1         1 9KD       0.081700
     52 H18          2.9700     0.7710    -3.4690 h1         1 9KD       0.081700
     53 H19          2.8120    -4.2480    -4.8580 hn         1 9KD       0.362500
     54 H20          4.6040    -0.4570    -2.4900 h4         1 9KD       0.175000
     55 H21          4.4280     2.2120     2.2110 ha         1 9KD       0.177000
     56 H22          6.6060     2.7900     4.8160 hn         1 9KD       0.319500
     57 C23          5.8610    -3.0740     7.3100 cg         1 9KD       0.236800
     58 O3           1.4140    -2.2320    -4.8370 o          1 9KD      -0.664500
@<TRIPOS>BOND
     1    22    21 ar
     2    22     1 ar
     3    21     3 ar
     4     1     2 ar
     5    58     6 2
     6     3    20 ar
     7     2    20 ar
     8     2    24 1
     9     5    24 1
    10     5    25 1
    11    20    23 1
    12    25    26 1
    13     6    26 1
    14     6    27 1
    15    26    29 1
    16    27    28 1
    17    23     8 1
    18     8    30 ar
    19     8     9 ar
    20    29     7 2
    21    28    32 2
    22    28     7 1
    23    30    12 ar
    24    16     9 1
    25     9    10 ar
    26    12    33 1
    27    12    11 ar
    28    33    17 1
    29    18    17 1
    30    18    19 2
    31    17     4 2
    32    10    11 ar
    33    10    13 ar
    34    11    15 ar
    35    13    31 ar
    36    15    14 ar
    37    31    14 ar
    38    31    57 1
    39    57    34 3
    40     1    35 1
    41     3    36 1
    42     5    37 1
    43     5    38 1
    44     7    39 1
    45    13    40 1
    46    14    41 1
    47    15    42 1
    48    16    43 1
    49    16    44 1
    50    16    45 1
    51    18    46 1
    52    19    47 1
    53    19    48 1
    54    21    49 1
    55    22    50 1
    56    25    51 1
    57    25    52 1
    58    27    53 1
    59    29    54 1
    60    30    55 1
    61    33    56 1
@<TRIPOS>SUBSTRUCTURE
     1 9KD         1 TEMP              0 ****  ****    0 ROOT
