@<TRIPOS>MOLECULE
9KE
   44    46     1     0     0
SMALL
bcc


@<TRIPOS>ATOM
      1 C10          0.0000     0.0000     0.0000 cc         1 9KE       0.325200
      2 C13          6.9540     2.8740     2.9110 c3         1 9KE       0.139800
      3 C17          7.8280     6.4970     5.1890 ca         1 9KE      -0.126300
      4 C20          9.1900     6.4030     7.5950 ca         1 9KE      -0.030600
      5 C22          7.8330     6.6760     7.5780 ca         1 9KE      -0.103000
      6 C02          5.3670     4.8600     3.9810 c          1 9KE       0.630500
      7 C03          4.7740     3.5020     3.7290 c3         1 9KE       0.078800
      8 N04          5.5070     2.8280     2.6490 n3         1 9KE      -0.540600
      9 C05          5.0450     1.4420     2.4850 c3         1 9KE       0.159800
     10 C06          3.6040     1.4430     1.9720 c3         1 9KE      -0.056400
     11 C07          3.1220     0.0010     1.8010 c3         1 9KE      -0.040700
     12 N08          1.7430     0.0000     1.3100 na         1 9KE       0.285100
     13 C09          1.3470     0.0000     0.0000 cd         1 9KE      -0.435600
     14 N11         -0.4150     0.0000     1.2750 nc         1 9KE      -0.619000
     15 C12          0.6240    -0.0050     2.0660 cd         1 9KE       0.220400
     16 C14          7.4340     4.3190     2.7660 c3         1 9KE       0.055000
     17 N15          6.5840     5.2100     3.5510 n          1 9KE      -0.129800
     18 C16          7.0850     6.5470     3.8790 c3         1 9KE       0.104300
     19 C18          9.1850     6.2350     5.2050 ca         1 9KE      -0.076000
     20 C19          9.8660     6.1890     6.4070 ca         1 9KE      -0.103000
     21 Cl1         10.0440     6.3450     9.1040 cl         1 9KE      -0.027400
     22 C23          7.1520     6.7160     6.3750 ca         1 9KE      -0.076000
     23 H1          -0.6370     0.0020    -0.8770 h4         1 9KE       0.002100
     24 H2           7.1520     2.5270     3.9170 h1         1 9KE       0.020200
     25 H3           7.4720     2.2470     2.1950 h1         1 9KE       0.020200
     26 H4           7.3030     6.8460     8.5070 ha         1 9KE       0.115500
     27 H5           3.7350     3.6120     3.4430 h1         1 9KE       0.041200
     28 H6           4.8430     2.9080     4.6330 h1         1 9KE       0.041200
     29 H8           5.0890     0.9310     3.4390 h1         1 9KE       0.011700
     30 H9           5.6820     0.9320     1.7720 h1         1 9KE       0.011700
     31 H10          2.9680     1.9540     2.6840 hc         1 9KE       0.037700
     32 H11          3.5610     1.9540     1.0170 hc         1 9KE       0.037700
     33 H12          3.1660    -0.5100     2.7560 h1         1 9KE       0.034200
     34 H13          3.7590    -0.5110     1.0900 h1         1 9KE       0.034200
     35 H14          1.9920    -0.0000    -0.8700 h4         1 9KE       0.152000
     36 H15          0.5930    -0.0060     3.1490 h5         1 9KE       0.022100
     37 H16          7.3890     4.6080     1.7230 h1         1 9KE       0.023200
     38 H17          8.4550     4.3950     3.1200 h1         1 9KE       0.023200
     39 H18          6.2520     7.2350     3.9620 h1         1 9KE       0.039700
     40 H19          7.7550     6.8840     3.0970 h1         1 9KE       0.039700
     41 H20          9.7140     6.0680     4.2750 ha         1 9KE       0.119000
     42 H21         10.9290     5.9800     6.4190 ha         1 9KE       0.115500
     43 H22          6.0900     6.9300     6.3620 ha         1 9KE       0.119000
     44 O01          4.7140     5.6730     4.6020 o          1 9KE      -0.696500
@<TRIPOS>BOND
     1     1    13 2   
     2     1    14 1   
     3     1    23 1   
     4     2     8 1   
     5     2    16 1   
     6     2    24 1   
     7     2    25 1   
     8     3    18 1   
     9     3    19 ar  
    10     3    22 ar  
    11     4     5 ar  
    12     4    20 ar  
    13     4    21 1   
    14     5    22 ar  
    15     5    26 1   
    16     6     7 1   
    17     6    17 1   
    18     6    44 2   
    19     7     8 1   
    20     7    27 1   
    21     7    28 1   
    22     8     9 1   
    23     9    10 1   
    24     9    29 1   
    25     9    30 1   
    26    10    11 1   
    27    10    31 1   
    28    10    32 1   
    29    11    12 1   
    30    11    33 1   
    31    11    34 1   
    32    12    13 1   
    33    12    15 1   
    34    13    35 1   
    35    14    15 2   
    36    15    36 1   
    37    16    17 1   
    38    16    37 1   
    39    16    38 1   
    40    17    18 1   
    41    18    39 1   
    42    18    40 1   
    43    19    20 ar  
    44    19    41 1   
    45    20    42 1   
    46    22    43 1   
@<TRIPOS>SUBSTRUCTURE
     1 9KE         1 TEMP              0 ****  ****    0 ROOT
