@<TRIPOS>MOLECULE
9KG
   61    64     1     0     0
SMALL
bcc


@<TRIPOS>ATOM
      1 N1           0.0000     0.0000     0.0000 n          1 9KG       0.043000
      2 C2           0.2380     3.3810    -2.3950 ca         1 9KG       0.126100
      3 N2           2.0370     0.0000     1.1550 ns         1 9KG      -0.124500
      4 N3           1.9190     1.7780    -6.9940 n          1 9KG      -0.028000
      5 C4           1.3720     5.3840    -3.0880 ca         1 9KG      -0.070000
      6 N4           8.7170    -1.2280    -5.5860 n1         1 9KG      -0.388800
      7 C6          -1.0190     5.3510    -2.9290 ca         1 9KG      -0.057000
      8 C7          -0.9710     1.4500    -1.7140 c3         1 9KG       0.177400
      9 C9           1.3460     0.0000     0.0000 c          1 9KG       0.588500
     10 C1          -0.9790     4.0300    -2.5200 ca         1 9KG      -0.207000
     11 C10          1.3880     0.0020     2.3360 c          1 9KG       0.610700
     12 C11         -0.0290     0.0020     2.3500 cc         1 9KG      -0.291200
     13 C12         -0.6970     0.0010     1.1780 cd         1 9KG      -0.093400
     14 C13          3.0670     2.7060    -3.6160 ca         1 9KG       0.154100
     15 C14          4.2910     2.0800    -3.5420 ca         1 9KG      -0.094300
     16 C15          4.7590     1.3270    -4.6320 ca         1 9KG      -0.002000
     17 C16          3.9640     1.2210    -5.8010 ca         1 9KG      -0.036000
     18 C17          2.7140     1.8730    -5.8510 ca         1 9KG      -0.041400
     19 C18          2.2810     2.6040    -4.7660 ca         1 9KG      -0.141000
     20 C19          6.0040     0.6790    -4.5810 ca         1 9KG      -0.058000
     21 C20          6.4350    -0.0550    -5.6740 ca         1 9KG       0.031000
     22 C21          5.6360    -0.1510    -6.8280 ca         1 9KG      -0.089000
     23 C22          4.4300     0.4700    -6.8940 ca         1 9KG      -0.079000
     24 C23          7.7030    -0.7180    -5.6300 cg         1 9KG       0.234800
     25 C24          5.1270     2.2010    -2.2930 c3         1 9KG       0.062200
     26 C25          2.0490     2.6840    -7.9820 c          1 9KG       0.587300
     27 C26          1.2120     2.5850    -9.1870 ce         1 9KG      -0.273200
     28 C27          0.9430     0.6930    -7.1190 c3         1 9KG       0.078300
     29 C28          1.3400     3.4800   -10.1620 c2         1 9KG      -0.042000
     30 C3           1.4190     4.0610    -2.6800 ca         1 9KG       0.066100
     31 C5           0.1540     6.0260    -3.2120 ca         1 9KG      -0.126000
     32 C8          -0.7250     0.0060    -1.2740 c3         1 9KG       0.024000
     33 O1           2.6170     3.4280    -2.5580 os         1 9KG      -0.201200
     34 O2           0.2800     2.0830    -1.9890 os         1 9KG      -0.273900
     35 O3           1.9460    -0.0010    -1.0570 o          1 9KG      -0.685500
     36 O4           2.0120     0.0020     3.3820 o          1 9KG      -0.655500
     37 O5           2.8600     3.5860    -7.8780 o          1 9KG      -0.640100
     38 H1           3.0380     0.0000     1.1430 hn         1 9KG       0.207500
     39 H2           2.2900     5.9150    -3.3110 ha         1 9KG       0.122000
     40 H3          -1.9710     5.8590    -3.0270 ha         1 9KG       0.104000
     41 H4          -1.7030     1.4640    -2.5130 h1         1 9KG       0.010200
     42 H5          -1.3430     2.0250    -0.8740 h1         1 9KG       0.010200
     43 H6          -1.8990     3.5030    -2.2980 ha         1 9KG       0.119000
     44 H7          -0.5560     0.0030     3.2960 ha         1 9KG       0.150000
     45 H8          -1.7800     0.0010     1.1580 h4         1 9KG       0.129000
     46 H9           1.3210     3.1020    -4.8120 ha         1 9KG       0.127000
     47 H10          6.6180     0.7540    -3.6920 ha         1 9KG       0.123000
     48 H11          5.9800    -0.7260    -7.6790 ha         1 9KG       0.110000
     49 H12          3.8270     0.3850    -7.7900 ha         1 9KG       0.108000
     50 H13          5.3320     1.2140    -1.8980 hc         1 9KG       0.015367
     51 H14          4.5880     2.7820    -1.5530 hc         1 9KG       0.015367
     52 H15          6.0610     2.6970    -2.5300 hc         1 9KG       0.015367
     53 H16          1.2340     1.6850    -9.7900 ha         1 9KG       0.121000
     54 H17          1.0960     0.1770    -8.0590 h1         1 9KG       0.010700
     55 H18         -0.0590     1.1030    -7.0910 h1         1 9KG       0.010700
     56 H19          1.0710    -0.0040    -6.3000 h1         1 9KG       0.010700
     57 H20          2.0620     4.2820   -10.0690 ha         1 9KG       0.088500
     58 H21          0.7230     3.4060   -11.0500 ha         1 9KG       0.088500
     59 H22          0.1160     7.0600    -3.5310 ha         1 9KG       0.111000
     60 H23         -0.1120    -0.4530    -2.0400 h1         1 9KG       0.054200
     61 H24         -1.6470    -0.5520    -1.1660 h1         1 9KG       0.054200
@<TRIPOS>BOND
     1     1     9 1   
     2     1    13 1   
     3     1    32 1   
     4     2    10 ar  
     5     2    30 ar  
     6     2    34 1   
     7     3     9 1   
     8     3    11 1   
     9     3    38 1   
    10     4    18 1   
    11     4    26 1   
    12     4    28 1   
    13     5    30 ar  
    14     5    31 ar  
    15     5    39 1   
    16     6    24 3   
    17     7    10 ar  
    18     7    31 ar  
    19     7    40 1   
    20     8    32 1   
    21     8    34 1   
    22     8    41 1   
    23     8    42 1   
    24     9    35 2   
    25    10    43 1   
    26    11    12 1   
    27    11    36 2   
    28    12    13 2   
    29    12    44 1   
    30    13    45 1   
    31    14    15 ar  
    32    14    19 ar  
    33    14    33 1   
    34    15    16 ar  
    35    15    25 1   
    36    16    17 ar  
    37    16    20 ar  
    38    17    18 ar  
    39    17    23 ar  
    40    18    19 ar  
    41    19    46 1   
    42    20    21 ar  
    43    20    47 1   
    44    21    22 ar  
    45    21    24 1   
    46    22    23 ar  
    47    22    48 1   
    48    23    49 1   
    49    25    50 1   
    50    25    51 1   
    51    25    52 1   
    52    26    27 1   
    53    26    37 2   
    54    27    29 2   
    55    27    53 1   
    56    28    54 1   
    57    28    55 1   
    58    28    56 1   
    59    29    57 1   
    60    29    58 1   
    61    30    33 1   
    62    31    59 1   
    63    32    60 1   
    64    32    61 1   
@<TRIPOS>SUBSTRUCTURE
     1 9KG         1 TEMP              0 ****  ****    0 ROOT
