@<TRIPOS>MOLECULE
molecule
   61    64     1     0     0
SMALL
bcc


@<TRIPOS>ATOM
      1 N1           0.0000     0.0000     0.0000 n          1 9KG      -0.328000
      2 C2           0.2380     3.3810    -2.3950 ca         1 9KG       0.112100
      3 N2           2.0370     0.0000     1.1550 ns         1 9KG      -0.566500
      4 N3           1.9190     1.7780    -6.9940 n          1 9KG      -0.347000
      5 C4           1.3720     5.3840    -3.0880 ca         1 9KG      -0.065000
      6 N4           8.7010    -1.2600    -5.6030 n1         1 9KG      -0.378800
      7 C6          -1.0190     5.3510    -2.9290 ca         1 9KG      -0.104000
      8 C7          -0.9710     1.4500    -1.7140 c3         1 9KG       0.061400
      9 C9           1.3460     0.0000     0.0000 c          1 9KG       0.830500
     10 C1          -0.9790     4.0300    -2.5200 ca         1 9KG      -0.217000
     11 C10          1.3880     0.0020     2.3360 c          1 9KG       0.695700
     12 C11         -0.0290     0.0020     2.3500 cc         1 9KG      -0.322200
     13 C12         -0.6970     0.0010     1.1780 cd         1 9KG       0.010600
     14 C13          3.0670     2.7060    -3.6160 ca         1 9KG       0.080100
     15 C14          4.2910     2.0800    -3.5420 ca         1 9KG      -0.017300
     16 C15          4.7590     1.3270    -4.6320 ca         1 9KG      -0.005000
     17 C16          3.9640     1.2210    -5.8010 ca         1 9KG      -0.022000
     18 C17          2.7140     1.8730    -5.8510 ca         1 9KG       0.117600
     19 C18          2.2810     2.6040    -4.7660 ca         1 9KG      -0.152000
     20 C19          6.0040     0.6790    -4.5810 ca         1 9KG      -0.042000
     21 C20          6.4350    -0.0550    -5.6740 ca         1 9KG      -0.031000
     22 C21          5.6360    -0.1510    -6.8280 ca         1 9KG      -0.104000
     23 C22          4.4300     0.4700    -6.8940 ca         1 9KG      -0.117000
     24 C23          7.7030    -0.7180    -5.6300 cg         1 9KG       0.249800
     25 C24          5.1270     2.2010    -2.2930 c3         1 9KG      -0.541800
     26 C25          2.0490     2.6840    -7.9820 c          1 9KG       0.591300
     27 C26          1.2120     2.5850    -9.1870 ce         1 9KG      -0.271200
     28 C27          0.9430     0.6930    -7.1190 c3         1 9KG      -0.437700
     29 C28          1.3400     3.4800   -10.1620 c2         1 9KG      -0.112000
     30 C3           1.4190     4.0610    -2.6800 ca         1 9KG       0.075100
     31 C5           0.1540     6.0260    -3.2120 ca         1 9KG      -0.183000
     32 C8          -0.7250     0.0060    -1.2740 c3         1 9KG       0.078000
     33 O1           2.6170     3.4280    -2.5580 os         1 9KG      -0.260200
     34 O2           0.2800     2.0830    -1.9890 os         1 9KG      -0.312900
     35 O3           1.9460    -0.0010    -1.0570 o          1 9KG      -0.617500
     36 O4           2.0120     0.0020     3.3820 o          1 9KG      -0.618500
     37 O5           2.8600     3.5860    -7.8780 o          1 9KG      -0.596100
     38 H1           3.0130    -0.0100     1.3790 hn         1 9KG       0.376500
     39 H2           2.2880     5.8990    -3.3540 ha         1 9KG       0.151000
     40 H3          -1.8660     6.0080    -3.0880 ha         1 9KG       0.134000
     41 H4          -1.7660     1.7390    -2.3900 h1         1 9KG       0.049700
     42 H5          -1.0800     1.9880    -0.7800 h1         1 9KG       0.049700
     43 H6          -1.6800     3.2930    -2.1480 ha         1 9KG       0.138000
     44 H7          -0.7900     0.1330     3.1090 ha         1 9KG       0.171000
     45 H8          -1.7730    -0.0190     1.2990 h4         1 9KG       0.165000
     46 H9           1.2960     3.0100    -4.9580 ha         1 9KG       0.145000
     47 H10          6.3320     0.5670    -3.5550 ha         1 9KG       0.195000
     48 H11          5.9310    -0.8410    -7.6090 ha         1 9KG       0.135000
     49 H12          4.0310     0.5280    -7.9000 ha         1 9KG       0.133000
     50 H13          5.1670     3.2040    -2.7000 hc         1 9KG       0.209033
     51 H14          4.4370     1.9370    -1.5000 hc         1 9KG       0.209033
     52 H15          5.0390     2.9650    -1.5290 hc         1 9KG       0.209033
     53 H16          0.2760     2.1210    -8.9000 ha         1 9KG       0.105000
     54 H17          0.2250     1.4950    -7.0010 h1         1 9KG       0.208033
     55 H18          1.6910     0.3550    -7.8270 h1         1 9KG       0.208033
     56 H19          0.1020     0.2580    -7.6460 h1         1 9KG       0.208033
     57 H20          0.7110     3.5280   -11.0430 ha         1 9KG       0.142500
     58 H21          2.2700     4.0170   -10.0230 ha         1 9KG       0.142500
     59 H22         -0.4060     6.8730    -3.5880 ha         1 9KG       0.163000
     60 H23         -0.2510    -0.0440    -2.2460 h1         1 9KG       0.109700
     61 H24         -1.6870    -0.4670    -1.4340 h1         1 9KG       0.109700
@<TRIPOS>BOND
     1    35     9 2
     2    32     8 1
     3    32     1 1
     4     9     1 1
     5     9     3 1
     6     8    34 1
     7     1    13 1
     8     3    11 1
     9    13    12 2
    10    34     2 1
    11    11    12 1
    12    11    36 2
    13    10     2 ar
    14    10     7 ar
    15     2    30 ar
    16     7    31 ar
    17    30    33 1
    18    30     5 ar
    19    33    14 1
    20    31     5 ar
    21    14    19 ar
    22    14    15 ar
    23    28     4 1
    24    19    18 ar
    25    25    15 1
    26    15    16 ar
    27    18     4 1
    28    18    17 ar
    29     4    26 1
    30    37    26 2
    31    16    17 ar
    32    16    20 ar
    33    26    27 1
    34    17    23 ar
    35    20    21 ar
    36    27    29 2
    37    23    22 ar
    38    21    22 ar
    39    21    24 1
    40    24     6 3
    41     3    38 1
    42     5    39 1
    43     7    40 1
    44     8    41 1
    45     8    42 1
    46    10    43 1
    47    12    44 1
    48    13    45 1
    49    19    46 1
    50    20    47 1
    51    22    48 1
    52    23    49 1
    53    25    50 1
    54    25    51 1
    55    25    52 1
    56    27    53 1
    57    28    54 1
    58    28    55 1
    59    28    56 1
    60    29    57 1
    61    29    58 1
    62    31    59 1
    63    32    60 1
    64    32    61 1
@<TRIPOS>SUBSTRUCTURE
     1 9KG         1 TEMP              0 ****  ****    0 ROOT
