@<TRIPOS>MOLECULE
molecule
   21    21     1     0     0
SMALL
bcc


@<TRIPOS>ATOM
      1 C2           0.0000     0.0000     0.0000 ca         1 9KH       0.145100
      2 C3           1.3940     0.0000     0.0000 ca         1 9KH      -0.220600
      3 C4           2.0680     0.0000     1.2030 ca         1 9KH       0.537600
      4 C6           0.0870     0.0000     2.3910 ca         1 9KH       0.640600
      5 O1          -0.6940    -0.0050    -1.1660 oh         1 9KH      -0.513100
      6 N5           1.4100    -0.0010     2.3480 nb         1 9KH      -0.725000
      7 C7          -0.6600     0.0000     1.2230 ca         1 9KH      -0.362300
      8 O8          -0.5450    -0.0010     3.5920 oh         1 9KH      -0.636300
      9 C9           2.1570    -0.0000    -1.2990 c3         1 9KH      -0.036800
     10 C10          3.5740    -0.0010     1.2120 c3         1 9KH      -0.247700
     11 C12          4.0770     1.4200     1.2150 c          1 9KH       0.898600
     12 O13          3.2920     2.3390     1.2110 o          1 9KH      -0.838800
     13 O14          5.3970     1.6650     1.2240 o          1 9KH      -0.838800
     14 H2          -1.3090    -0.7190    -1.1630 ho         1 9KH       0.407000
     15 H3          -1.7280     0.1800     1.2620 ha         1 9KH       0.134000
     16 H4           2.7530     0.9020    -1.3680 hc         1 9KH       0.046700
     17 H5           1.4600    -0.0370    -2.1270 hc         1 9KH       0.046700
     18 H6           2.8080    -0.8660    -1.3360 hc         1 9KH       0.046700
     19 H7           3.9300    -0.5120     2.0990 hc         1 9KH       0.051700
     20 H8           3.9410    -0.5120     0.3300 hc         1 9KH       0.051700
     21 H1          -0.5660    -0.8790     3.9360 ho         1 9KH       0.413000
@<TRIPOS>BOND
     1     5     1 1
     2     1     7 ar
     3     1     2 ar
     4     7     4 ar
     5     9     2 1
     6     2     3 ar
     7     4     8 1
     8     4     6 ar
     9     3     6 ar
    10     3    10 1
    11    10    11 1
    12    11    12 1
    13    11    13 1
    14     5    14 1
    15     7    15 1
    16     9    16 1
    17     9    17 1
    18     9    18 1
    19    10    19 1
    20    10    20 1
    21     8    21 1
@<TRIPOS>SUBSTRUCTURE
     1 9KH         1 TEMP              0 ****  ****    0 ROOT
