@<TRIPOS>MOLECULE
9KJ
   51    52     1     0     0
SMALL
bcc


@<TRIPOS>ATOM
      1 C20          0.0000     0.0000     0.0000 c3         1 9KJ       0.229400
      2 C22          3.1160    -1.4490     4.1260 c3         1 9KJ       0.145100
      3 C24          1.7980    -2.1810     4.3940 c3         1 9KJ       0.147100
      4 C26          0.7510    -1.1680     4.8650 c3         1 9KJ       0.145100
      5 O27         -0.5040    -1.8280     5.0490 oh         1 9KJ      -0.578800
      6 C03          0.6010    -0.0700     3.8090 c3         1 9KJ       0.149100
      7 O04          1.8690     0.5490     3.5860 os         1 9KJ      -0.409600
      8 C05          2.8760    -0.3410     3.0980 c3         1 9KJ       0.366900
      9 O06          2.4430    -0.9200     1.8660 os         1 9KJ      -0.412600
     10 C07          2.4070     0.0000     0.7720 c3         1 9KJ       0.149100
     11 C08          3.7530     0.0000     0.0000 c3         1 9KJ       0.115100
     12 O09          4.6670     0.9320     0.5790 oh         1 9KJ      -0.603800
     13 C10          3.3400     0.4480    -1.4180 c3         1 9KJ       0.111500
     14 C11          4.1430    -0.3280    -2.4630 c3         1 9KJ       0.162400
     15 O12          4.0480    -1.7290    -2.1930 oh         1 9KJ      -0.591800
     16 N13          1.9030     0.1530    -1.5680 n3         1 9KJ      -0.416600
     17 C14          1.6630    -0.7190    -2.7260 c3         1 9KJ       0.058600
     18 P15          0.9580     0.2630    -4.0900 p5         1 9KJ       0.437700
     19 O16          2.0570     1.3140    -4.6190 o          1 9KJ      -0.746500
     20 O17          0.5320    -0.7190    -5.2930 o          1 9KJ      -0.746500
     21 O18         -0.2330     0.9960    -3.6070 o          1 9KJ      -0.746500
     22 C19          1.4190    -0.4770    -0.3210 c3         1 9KJ       0.104500
     23 O21         -0.9130    -0.5470    -0.9550 oh         1 9KJ      -0.509800
     24 O25          1.9960    -3.1710     5.4050 oh         1 9KJ      -0.607800
     25 H1          -0.2760    -0.3310     0.9940 h1         1 9KJ      -0.027800
     26 H2          -0.0360     1.0820    -0.0440 h1         1 9KJ      -0.027800
     27 H4           1.4560    -2.6530     3.4800 h1         1 9KJ       0.055700
     28 H5           1.0720    -0.7260     5.8010 h1         1 9KJ       0.002700
     29 H6          -0.6510    -1.9740     5.9680 ho         1 9KJ       0.381000
     30 H7          -1.2740     2.5610     3.5540 ho         1 9KJ       0.374000
     31 H10          0.2480    -0.5090     2.8830 h1         1 9KJ       0.074700
     32 H11          3.7960     0.2090     2.9410 h2         1 9KJ       0.043700
     33 H12          2.1560     0.9990     1.1070 h1         1 9KJ       0.044700
     34 H13          4.1760    -0.9970    -0.0250 h1         1 9KJ       0.027700
     35 H14          5.5490     0.6180     0.4680 ho         1 9KJ       0.367000
     36 H15          3.5100     1.5120    -1.5300 h1         1 9KJ       0.054700
     37 H16          3.7440    -0.1230    -3.4500 h1         1 9KJ       0.027700
     38 H17          5.1810    -0.0220    -2.4220 h1         1 9KJ       0.027700
     39 H18          4.7680    -2.1780    -2.6040 ho         1 9KJ       0.351000
     40 H20          0.9690    -1.5040    -2.4490 h1         1 9KJ       0.027700
     41 H21          2.6000    -1.1610    -3.0450 h1         1 9KJ       0.027700
     42 H24          1.4500    -1.5560    -0.4090 h1         1 9KJ       0.024700
     43 H25         -1.7820    -0.5570    -0.5890 ho         1 9KJ       0.338000
     44 H27          1.8000    -4.0240     5.0530 ho         1 9KJ       0.397000
     45 O23          4.0800    -2.3730     3.6170 oh         1 9KJ      -0.556800
     46 C02         -0.3990     0.9780     4.2990 c3         1 9KJ       0.225400
     47 H8          -0.0010     1.4750     5.1750 h1         1 9KJ      -0.018800
     48 O01         -0.6260     1.9390     3.2670 oh         1 9KJ      -0.555800
     49 H9          -1.3350     0.4930     4.5530 h1         1 9KJ      -0.018800
     50 H26          4.8360    -2.3800     4.1790 ho         1 9KJ       0.374000
     51 H3           3.4790    -1.0120     5.0490 h1         1 9KJ       0.004700
@<TRIPOS>BOND
     1     1    22 1   
     2     1    23 1   
     3     1    25 1   
     4     1    26 1   
     5     2     3 1   
     6     2     8 1   
     7     2    45 1   
     8     2    51 1   
     9     3     4 1   
    10     3    24 1   
    11     3    27 1   
    12     4     5 1   
    13     4     6 1   
    14     4    28 1   
    15     5    29 1   
    16     6     7 1   
    17     6    31 1   
    18     6    46 1   
    19     7     8 1   
    20     8     9 1   
    21     8    32 1   
    22     9    10 1   
    23    10    11 1   
    24    10    22 1   
    25    10    33 1   
    26    11    12 1   
    27    11    13 1   
    28    11    34 1   
    29    12    35 1   
    30    13    14 1   
    31    13    16 1   
    32    13    36 1   
    33    14    15 1   
    34    14    37 1   
    35    14    38 1   
    36    15    39 1   
    37    16    17 1   
    38    16    22 1   
    39    17    18 1   
    40    17    40 1   
    41    17    41 1   
    42    18    19 1   
    43    18    20 1   
    44    18    21 1   
    45    22    42 1   
    46    23    43 1   
    47    24    44 1   
    48    30    48 1   
    49    45    50 1   
    50    46    47 1   
    51    46    48 1   
    52    46    49 1   
@<TRIPOS>SUBSTRUCTURE
     1 9KJ         1 TEMP              0 ****  ****    0 ROOT
