@<TRIPOS>MOLECULE
molecule
   80    85     1     0     0
SMALL
bcc


@<TRIPOS>ATOM
      1 C10          0.0000     0.0000     0.0000 ca         1 9KO      -0.141000
      2 C13         -0.7780    -0.0200     3.6980 c3         1 9KO       0.676200
      3 C17          1.3670    -0.0120     2.4150 ca         1 9KO      -0.019000
      4 C20          7.6440    -0.9730     1.0260 ca         1 9KO       0.086600
      5 C22          8.6720    -1.1980     3.1640 c          1 9KO       0.829500
      6 C02          8.3900    -0.3130     0.0570 ca         1 9KO      -0.082300
      7 C03          7.7550     0.4470    -0.9050 ca         1 9KO      -0.108000
      8 C04          6.3770     0.5550    -0.9080 ca         1 9KO      -0.152000
      9 C05          5.6260    -0.1030     0.0580 ca         1 9KO       0.054600
     10 C07          3.5530    -0.0060     1.2190 c          1 9KO       0.672700
     11 C08          2.0740     0.0000     1.2110 ca         1 9KO      -0.153600
     12 C09          1.3790     0.0000     0.0000 ca         1 9KO      -0.080000
     13 C11         -0.6950    -0.0010     1.1970 ca         1 9KO      -0.058000
     14 C12         -0.0130    -0.0070     2.4010 ca         1 9KO      -0.190300
     15 C19          6.2610    -0.8680     1.0270 ca         1 9KO      -0.111000
     16 C25          9.5930    -3.2340     4.0230 ca         1 9KO       0.648200
     17 C27         10.4850    -5.1790     4.8690 ca         1 9KO       0.968900
     18 C29         11.5350    -7.1660     5.7480 ca         1 9KO       0.006300
     19 C30         11.9600    -7.6280     4.5040 ca         1 9KO      -0.082000
     20 C31         12.3610    -8.9480     4.3930 ca         1 9KO      -0.227300
     21 C32         12.3290    -9.7630     5.5210 ca         1 9KO       0.541200
     22 C34         11.5300    -8.0360     6.8270 ca         1 9KO       0.408200
     23 C36         11.3290   -12.7020     7.3040 c3         1 9KO       0.092800
     24 C37         11.8390   -14.1440     7.2250 c3         1 9KO       0.114500
     25 C39         10.5930   -15.9910     6.2000 c          1 9KO       0.663100
     26 C40         10.0630   -16.7040     4.9820 c3         1 9KO      -0.171100
     27 C42         11.2750   -14.1230     4.7650 c3         1 9KO       0.114500
     28 C43         10.7860   -12.6820     4.9400 c3         1 9KO       0.092800
     29 C45          9.5540    -5.2670     2.7610 ca         1 9KO       0.530200
     30 C46          9.2510    -3.9320     2.8630 ca         1 9KO      -0.448900
     31 C47          8.5540    -3.1780     1.7570 c3         1 9KO       0.172300
     32 F14         -2.0010    -0.6720     3.5120 f          1 9KO      -0.220300
     33 F15         -0.0330    -0.6940     4.6720 f          1 9KO      -0.220300
     34 F16         -1.0090     1.2950     4.1170 f          1 9KO      -0.220300
     35 N06          4.2320     0.0060     0.0550 ns         1 9KO      -0.474100
     36 N21          8.2870    -1.7480     1.9980 n          1 9KO      -0.405000
     37 N23          9.2910    -1.8880     4.1310 n          1 9KO      -0.444300
     38 N26         10.2060    -3.8890     5.0000 nb         1 9KO      -0.835000
     39 N33         11.9200    -9.2880     6.6860 nb         1 9KO      -0.690000
     40 N35         11.5530   -12.0350     6.0140 nh         1 9KO      -0.613300
     41 N38         11.2110   -14.8000     6.0690 n          1 9KO      -0.503800
     42 N44         10.1690    -5.8600     3.7790 nb         1 9KO      -0.814000
     43 O18          4.1540    -0.0210     2.2750 o          1 9KO      -0.574100
     44 O41         10.4630   -16.4890     7.2980 o          1 9KO      -0.604100
     45 O48          8.4510    -0.0180     3.3470 o          1 9KO      -0.648500
     46 H1          -0.5400     0.0020    -0.9390 ha         1 9KO       0.144000
     47 H2           1.8990     0.0510     3.3560 ha         1 9KO       0.176000
     48 H3           9.4350    -0.1320     5.2580 h1         1 9KO       0.061033
     49 H4          10.7240    -1.3100     5.5420 h1         1 9KO       0.061033
     50 H5           9.1050    -1.5960     6.1950 h1         1 9KO       0.061033
     51 H6          10.2690    -0.2410     1.0550 hc         1 9KO       0.046033
     52 H7          10.3100     0.2980    -0.6300 hc         1 9KO       0.046033
     53 H8          10.1780    -1.4260    -0.2560 hc         1 9KO       0.046033
     54 H9           8.3390     0.9610    -1.6600 ha         1 9KO       0.138000
     55 H10          5.8830     1.1520    -1.6640 ha         1 9KO       0.131000
     56 H11          1.9220     0.0050    -0.9380 ha         1 9KO       0.130000
     57 H12         -1.7790    -0.0010     1.1910 ha         1 9KO       0.151000
     58 H13          5.6780    -1.3810     1.7810 ha         1 9KO       0.170000
     59 H14         11.9740    -6.9710     3.6430 ha         1 9KO       0.170000
     60 H15         12.6970    -9.3410     3.4420 ha         1 9KO       0.143000
     61 H16         11.2010    -7.6840     7.7980 h4         1 9KO       0.018100
     62 H17         10.2690   -12.7060     7.5280 h1         1 9KO       0.060200
     63 H18         11.8660   -12.1720     8.0810 h1         1 9KO       0.060200
     64 H19         11.5730   -14.6740     8.1320 h1         1 9KO       0.067700
     65 H20         12.9150   -14.1430     7.1010 h1         1 9KO       0.067700
     66 H21          9.7890   -17.7170     5.2480 hc         1 9KO       0.061700
     67 H22          9.1910   -16.1800     4.6080 hc         1 9KO       0.061700
     68 H23         10.8270   -16.7260     4.2150 hc         1 9KO       0.061700
     69 H24         10.6390   -14.6390     4.0560 h1         1 9KO       0.067700
     70 H25         12.2980   -14.1190     4.4080 h1         1 9KO       0.067700
     71 H26          9.7340   -12.6870     5.2010 h1         1 9KO       0.060200
     72 H27         10.9310   -12.1370     4.0150 h1         1 9KO       0.060200
     73 H28          9.2960    -5.8260     1.8690 h4         1 9KO       0.033100
     74 H29          7.6050    -3.6670     1.5690 h1         1 9KO       0.047200
     75 H30          9.1620    -3.2580     0.8650 h1         1 9KO       0.047200
     76 H31          3.7430     0.1360    -0.8090 hn         1 9KO       0.324500
     77 H32         11.3240    -5.3490     6.7600 hn         1 9KO       0.470800
     78 N28         11.1250    -5.8350     5.9080 nu         1 9KO      -0.745300
     79 C24          9.6630    -1.1860     5.3610 c3         1 9KO       0.099300
     80 C01          9.8920    -0.4290     0.0570 c3         1 9KO      -0.044800
@<TRIPOS>BOND
     1    80     6 1
     2     7     8 ar
     3     7     6 ar
     4     8     9 ar
     5     6     4 ar
     6     9    35 1
     7     9    15 ar
     8     4    15 ar
     9     4    36 1
    10    35    10 1
    11    36    31 1
    12    36     5 1
    13    31    30 1
    14    45     5 2
    15     5    37 1
    16    30    29 ar
    17    30    16 ar
    18    29    42 ar
    19    12     1 ar
    20    12    11 ar
    21    10    11 1
    22    10    43 2
    23    16    37 1
    24    16    38 ar
    25    37    79 1
    26    42    17 ar
    27     1    13 ar
    28    11     3 ar
    29    38    17 ar
    30    17    78 1
    31    13    14 ar
    32     3    14 ar
    33    78    18 1
    34    14     2 1
    35    19    18 ar
    36    19    20 ar
    37    18    22 ar
    38    32     2 1
    39    20    21 ar
    40    22    39 ar
    41     2    34 1
    42     2    33 1
    43    21    39 ar
    44    21    40 1
    45    44    25 2
    46    40    23 1
    47    40    28 1
    48    25    26 1
    49    25    41 1
    50    23    24 1
    51    24    41 1
    52    41    27 1
    53    27    28 1
    54     1    46 1
    55     3    47 1
    56    79    48 1
    57    79    49 1
    58    79    50 1
    59    80    51 1
    60    80    52 1
    61    80    53 1
    62     7    54 1
    63     8    55 1
    64    12    56 1
    65    13    57 1
    66    15    58 1
    67    19    59 1
    68    20    60 1
    69    22    61 1
    70    23    62 1
    71    23    63 1
    72    24    64 1
    73    24    65 1
    74    26    66 1
    75    26    67 1
    76    26    68 1
    77    27    69 1
    78    27    70 1
    79    28    71 1
    80    28    72 1
    81    29    73 1
    82    31    74 1
    83    31    75 1
    84    35    76 1
    85    78    77 1
@<TRIPOS>SUBSTRUCTURE
     1 9KO         1 TEMP              0 ****  ****    0 ROOT
