@<TRIPOS>MOLECULE
molecule
   32    35     1     0     0
SMALL
bcc


@<TRIPOS>ATOM
      1 N1           0.0000     0.0000     0.0000 nb         1 9KQ      -0.756000
      2 C2           1.3310     0.0000     0.0000 cp         1 9KQ       0.776500
      3 N3           2.0440     0.0000     1.1120 nb         1 9KQ      -0.724000
      4 C4           1.4380     0.0020     2.3050 ca         1 9KQ       0.467600
      5 C5           0.0210     0.0030     2.3500 ca         1 9KQ      -0.291600
      6 C6          -0.6910     0.0020     1.1270 ca         1 9KQ       0.581800
      7 CAA          2.1630     0.0010     3.5050 ca         1 9KQ      -0.173300
      8 CAB          1.4970     0.0020     4.6940 ca         1 9KQ      -0.095000
      9 CAC          0.1040     0.0030     4.7360 ca         1 9KQ      -0.124000
     10 CAD         -0.6320     0.0040     3.5890 ca         1 9KQ      -0.111000
     11 CAK          3.4360    -0.0040    -1.3360 ca         1 9KQ      -0.080000
     12 CAL          4.0920    -0.0040    -2.5500 ca         1 9KQ      -0.143500
     13 CAM          3.3710    -0.0040    -3.7300 ca         1 9KQ      -0.104000
     14 CAN          1.9870    -0.0030    -3.7010 ca         1 9KQ      -0.143500
     15 CAO          1.3200    -0.0020    -2.4930 ca         1 9KQ      -0.080000
     16 CAP          2.0420    -0.0030    -1.3010 cp         1 9KQ      -0.155500
     17 CAQ         -2.8960     0.6270     0.2110 cc         1 9KQ       0.373900
     18 NAQ         -2.0830     0.0030     1.1120 na         1 9KQ      -0.368500
     19 CAR         -2.9170    -0.6200     1.9940 cc         1 9KQ       0.373900
     20 NAS         -4.1390    -0.3640     1.6150 nd         1 9KQ      -0.345500
     21 NAT         -4.1260     0.3730     0.5630 nd         1 9KQ      -0.345500
     22 HAA          3.2460     0.0010     3.4880 ha         1 9KQ       0.158000
     23 HAB          2.0590     0.0020     5.6200 ha         1 9KQ       0.141000
     24 HAC         -0.4000     0.0040     5.6950 ha         1 9KQ       0.141000
     25 HAD         -1.7140     0.0040     3.6350 ha         1 9KQ       0.149000
     26 HAL          5.1750    -0.0050    -2.5790 ha         1 9KQ       0.135000
     27 HAM          3.8910    -0.0050    -4.6810 ha         1 9KQ       0.132000
     28 HAN          1.4270    -0.0030    -4.6280 ha         1 9KQ       0.135000
     29 HAO          0.2370    -0.0020    -2.4710 ha         1 9KQ       0.152500
     30 HAQ         -2.5800     1.2230    -0.6360 h5         1 9KQ       0.085600
     31 HAR         -2.6200    -1.2170     2.8490 h5         1 9KQ       0.085600
     32 HAK          4.0030    -0.0040    -0.4130 ha         1 9KQ       0.152500
@<TRIPOS>BOND
     1     1     2 ar
     2     1     6 ar
     3     2     3 ar
     4     2    16 1
     5     3     4 ar
     6     4     5 ar
     7     4     7 ar
     8     5     6 ar
     9     5    10 ar
    10     6    18 1
    11     7     8 ar
    12     8     9 ar
    13     9    10 ar
    14    11    12 ar
    15    11    16 ar
    16    12    13 ar
    17    13    14 ar
    18    14    15 ar
    19    15    16 ar
    20    17    18 1
    21    17    21 2
    22    18    19 1
    23    19    20 2
    24    20    21 1
    25     7    22 1
    26     8    23 1
    27     9    24 1
    28    10    25 1
    29    11    32 1
    30    12    26 1
    31    13    27 1
    32    14    28 1
    33    15    29 1
    34    17    30 1
    35    19    31 1
@<TRIPOS>SUBSTRUCTURE
     1 9KQ         1 TEMP              0 ****  ****    0 ROOT
