@<TRIPOS>MOLECULE
9KQ
   32    35     1     0     0
SMALL
bcc


@<TRIPOS>ATOM
      1 N1         -0.0300    0.1140   -0.0180 nb        1 9KQ     -0.715000
      2 C2          1.3540   -0.0540    0.0170 cp        1 9KQ      0.731500
      3 N3          2.0920   -0.2370    1.1240 nb        1 9KQ     -0.680000
      4 C4          1.4320   -0.2150    2.3350 ca        1 9KQ      0.430600
      5 C5          0.0170   -0.0140    2.4250 ca        1 9KQ     -0.266600
      6 C6         -0.6790    0.1130    1.1540 ca        1 9KQ      0.565800
      7 CAA         2.1770   -0.3850    3.5470 ca        1 9KQ     -0.173300
      8 CAB         1.5420   -0.3210    4.7620 ca        1 9KQ     -0.101000
      9 CAC         0.1520   -0.0740    4.8410 ca        1 9KQ     -0.127000
     10 CAD        -0.5940    0.0790    3.6970 ca        1 9KQ     -0.100000
     11 CAK         3.2850    0.6010   -1.4260 ca        1 9KQ     -0.085500
     12 CAL         3.9330    0.6170   -2.6610 ca        1 9KQ     -0.141500
     13 CAM         3.3510   -0.0000   -3.7680 ca        1 9KQ     -0.109000
     14 CAN         2.1160   -0.6360   -3.6410 ca        1 9KQ     -0.141500
     15 CAO         1.4590   -0.6560   -2.4120 ca        1 9KQ     -0.085500
     16 CAP         2.0440   -0.0360   -1.3000 cp        1 9KQ     -0.149500
     17 CAQ        -2.8450    1.0120    0.2040 cc        1 9KQ      0.385900
     18 NAQ        -2.0850    0.2530    1.1230 na        1 9KQ     -0.405500
     19 CAR        -3.0490   -0.4780    1.8550 cc        1 9KQ      0.385900
     20 NAS        -4.2780   -0.1250    1.4090 nd        1 9KQ     -0.345000
     21 NAT        -4.1570    0.7650    0.4300 nd        1 9KQ     -0.345000
     22 HAA         3.2620   -0.5630    3.4830 ha        1 9KQ      0.160000
     23 HAB         2.1150   -0.4520    5.6940 ha        1 9KQ      0.144000
     24 HAC        -0.3240   -0.0010    5.8310 ha        1 9KQ      0.145000
     25 HAD        -1.6710    0.2970    3.7780 ha        1 9KQ      0.148000
     26 HAL         4.9070    1.1190   -2.7590 ha        1 9KQ      0.137000
     27 HAM         3.8660    0.0140   -4.7400 ha        1 9KQ      0.135000
     28 HAN         1.6560   -1.1240   -4.5130 ha        1 9KQ      0.137000
     29 HAO         0.4840   -1.1600   -2.3230 ha        1 9KQ      0.148000
     30 HAQ        -2.4010    1.6810   -0.5400 h5        1 9KQ      0.084600
     31 HAR        -2.8030   -1.2060    2.6320 h5        1 9KQ      0.084600
     32 HAK         3.7530    1.0880   -0.5570 ha        1 9KQ      0.148000
@<TRIPOS>BOND
     1    1    2 ar  
     2    1    6 ar  
     3    2    3 ar  
     4    2   16 1   
     5    3    4 ar  
     6    4    5 ar  
     7    4    7 ar  
     8    5    6 ar  
     9    5   10 ar  
    10    6   18 1   
    11    7    8 ar  
    12    7   22 1   
    13    8    9 ar  
    14    8   23 1   
    15    9   10 ar  
    16    9   24 1   
    17   10   25 1   
    18   11   12 ar  
    19   11   16 ar  
    20   11   32 1   
    21   12   13 ar  
    22   12   26 1   
    23   13   14 ar  
    24   13   27 1   
    25   14   15 ar  
    26   14   28 1   
    27   15   16 ar  
    28   15   29 1   
    29   17   18 1   
    30   17   21 2   
    31   17   30 1   
    32   18   19 1   
    33   19   20 2   
    34   19   31 1   
    35   20   21 1   
@<TRIPOS>SUBSTRUCTURE
     1 9KQ         1 TEMP              0 ****  ****    0 ROOT
