@<TRIPOS>MOLECULE
molecule
   70    72     1     0     0
SMALL
bcc


@<TRIPOS>ATOM
      1 O2           0.0000     0.0000     0.0000 o          1 9KR      -0.540100
      2 C23          1.2120     0.0000     0.0000 c          1 9KR       0.566300
      3 C24          1.9440     0.0000     1.2670 ce         1 9KR      -0.286200
      4 C25          1.2770    -0.0000     2.4230 c2         1 9KR      -0.081200
      5 C26          2.0290    -0.0010     3.7280 c3         1 9KR      -0.074900
      6 C22          1.9660    -0.0060    -1.3050 c3         1 9KR      -0.179400
      7 C20          0.9730    -0.0110    -2.4680 c3         1 9KR      -0.070400
      8 C18          1.7380    -0.0180    -3.7920 c3         1 9KR      -0.073700
      9 C19          2.5210    -1.3250    -3.9230 c3         1 9KR      -0.095100
     10 C16          0.7480     0.1020    -4.9530 c3         1 9KR      -0.052700
     11 C15         -0.0070     1.4550    -4.8810 c3         1 9KR      -0.080400
     12 C14          0.2570     2.1770    -6.2310 c3         1 9KR      -0.078400
     13 C9           0.5770     1.0170    -7.1780 c3         1 9KR      -0.034500
     14 C10          1.4910     0.1340    -6.2800 c3         1 9KR      -0.061000
     15 C17          2.8370     0.8370    -6.0870 c3         1 9KR      -0.092100
     16 C11          1.7230    -1.1700    -7.0070 c3         1 9KR      -0.065400
     17 C12          2.5820    -0.8640    -8.2450 c3         1 9KR      -0.079400
     18 C13          1.9020     0.1390    -9.1730 c3         1 9KR      -0.043200
     19 C8           1.3970     1.3430    -8.3900 c2         1 9KR      -0.095400
     20 C7           1.6630     2.5920    -8.7550 ce         1 9KR      -0.152000
     21 C6           2.4730     2.8520    -9.9550 ce         1 9KR      -0.133000
     22 C5           2.8260     4.0950   -10.2630 c2         1 9KR      -0.110400
     23 C            3.5400     4.3930   -11.5610 c3         1 9KR      -0.050700
     24 C4           2.5150     5.2370    -9.3230 c3         1 9KR      -0.050700
     25 C3           1.7200     6.3010   -10.0910 c3         1 9KR       0.193800
     26 O            1.6300     7.4920    -9.3080 oh         1 9KR      -0.603800
     27 C2           2.4390     6.5980   -11.3880 c2         1 9KR      -0.150400
     28 C21          2.7870     7.8230   -11.6940 c2         1 9KR      -0.191000
     29 C1           2.7420     5.4580   -12.3250 c3         1 9KR       0.193800
     30 O1           1.5200     4.8950   -12.8070 oh         1 9KR      -0.603800
     31 H1           3.0270     0.0000     1.2670 ha         1 9KR       0.132000
     32 H3           0.1940    -0.0010     2.4240 ha         1 9KR       0.149000
     33 H5           2.6510    -0.8860     3.7860 hc         1 9KR       0.048700
     34 H6           2.6540     0.8830     3.7850 hc         1 9KR       0.048700
     35 H7           1.3250     0.0010     4.5510 hc         1 9KR       0.048700
     36 H8           2.5890     0.8790    -1.3660 hc         1 9KR       0.065700
     37 H9           2.5890    -0.8900    -1.3580 hc         1 9KR       0.065700
     38 H10          0.3500     0.8740    -2.4150 hc         1 9KR       0.056200
     39 H11          0.3500    -0.8950    -2.4070 hc         1 9KR       0.056200
     40 H12          2.4260     0.8190    -3.8160 hc         1 9KR       0.056700
     41 H13          2.8110    -1.6720    -2.9380 hc         1 9KR       0.035700
     42 H14          1.9000    -2.0730    -4.4010 hc         1 9KR       0.035700
     43 H15          3.4080    -1.1560    -4.5210 hc         1 9KR       0.035700
     44 H16          0.0430    -0.7200    -4.9400 hc         1 9KR       0.056700
     45 H17          0.3770     2.0510    -4.0610 hc         1 9KR       0.046200
     46 H18         -1.0690     1.2810    -4.7550 hc         1 9KR       0.046200
     47 H19          1.1050     2.8470    -6.1470 hc         1 9KR       0.046700
     48 H20         -0.6290     2.7060    -6.5610 hc         1 9KR       0.046700
     49 H21         -0.3240     0.4810    -7.4520 hc         1 9KR       0.066700
     50 H22          3.5750     0.1180    -5.7530 hc         1 9KR       0.040367
     51 H23          3.1550     1.2730    -7.0260 hc         1 9KR       0.040367
     52 H24          2.7320     1.6190    -5.3440 hc         1 9KR       0.040367
     53 H25          2.2470    -1.8630    -6.3600 hc         1 9KR       0.044700
     54 H26          0.7740    -1.5920    -7.3150 hc         1 9KR       0.044700
     55 H27          2.7550    -1.7850    -8.7890 hc         1 9KR       0.042700
     56 H28          3.5320    -0.4550    -7.9210 hc         1 9KR       0.042700
     57 H29          2.6140     0.4730    -9.9180 hc         1 9KR       0.049700
     58 H30          1.0640    -0.3420    -9.6630 hc         1 9KR       0.049700
     59 H31          1.2410     3.4200    -8.1970 ha         1 9KR       0.135000
     60 H32          2.6980     2.0420   -10.6380 ha         1 9KR       0.131000
     61 H33          4.5340     4.7670   -11.3500 hc         1 9KR       0.057950
     62 H34          3.6030     3.4910   -12.1560 hc         1 9KR       0.057950
     63 H35          3.4390     5.6690    -8.9580 hc         1 9KR       0.057950
     64 H36          1.9240     4.8730    -8.4910 hc         1 9KR       0.057950
     65 H37          0.7260     5.9250   -10.3070 h1         1 9KR       0.046200
     66 H38          0.7660     7.5590    -8.9360 ho         1 9KR       0.401500
     67 H39          3.3000     8.0240   -12.6270 ha         1 9KR       0.122000
     68 H40          2.5600     8.6370   -11.0150 ha         1 9KR       0.122000
     69 H41          3.3320     5.8220   -13.1570 h1         1 9KR       0.046200
     70 H42          1.4810     4.9850   -13.7450 ho         1 9KR       0.401500
@<TRIPOS>BOND
     1    28    27 2
     2    30    29 1
     3    27    29 1
     4    27    25 1
     5    29    23 1
     6    25    26 1
     7    25    24 1
     8    23    22 1
     9    24    22 1
    10    22    21 2
    11    21    20 1
    12    20    19 2
    13    19    13 1
    14    19    18 1
    15    12    13 1
    16    12    11 1
    17    15    14 1
    18    13    14 1
    19    18    17 1
    20    11    10 1
    21    14    10 1
    22    14    16 1
    23    17    16 1
    24     7     6 1
    25     7     8 1
    26    10     8 1
    27     6     2 1
    28     1     2 2
    29     8     9 1
    30     2     3 1
    31     3     4 2
    32     4     5 1
    33     3    31 1
    34     4    32 1
    35     5    33 1
    36     5    34 1
    37     5    35 1
    38     6    36 1
    39     6    37 1
    40     7    38 1
    41     7    39 1
    42     8    40 1
    43     9    41 1
    44     9    42 1
    45     9    43 1
    46    10    44 1
    47    11    45 1
    48    11    46 1
    49    12    47 1
    50    12    48 1
    51    13    49 1
    52    15    50 1
    53    15    51 1
    54    15    52 1
    55    16    53 1
    56    16    54 1
    57    17    55 1
    58    17    56 1
    59    18    57 1
    60    18    58 1
    61    20    59 1
    62    21    60 1
    63    23    61 1
    64    23    62 1
    65    24    63 1
    66    24    64 1
    67    25    65 1
    68    26    66 1
    69    28    67 1
    70    28    68 1
    71    29    69 1
    72    30    70 1
@<TRIPOS>SUBSTRUCTURE
     1 9KR         1 TEMP              0 ****  ****    0 ROOT
