@<TRIPOS>MOLECULE
molecule
   20    20     1     0     0
SMALL
bcc


@<TRIPOS>ATOM
      1 N1           0.0000     0.0000     0.0000 ns         1 9KS      -0.470100
      2 C4          -0.1930     0.5130     2.3530 ca         1 9KS      -0.112000
      3 C5          -0.8850     0.4250     3.5450 ca         1 9KS      -0.127000
      4 C6          -2.0810    -0.2640     3.6050 ca         1 9KS      -0.126000
      5 C7          -2.5910    -0.8700     2.4720 ca         1 9KS      -0.162000
      6 C8          -1.9030    -0.7870     1.2730 ca         1 9KS       0.076100
      7 C2           1.3480     0.0000     0.0000 c          1 9KS       0.659100
      8 O1           1.9550     0.0000     1.0500 o          1 9KS      -0.598100
      9 C3          -0.7010    -0.0880     1.2100 ca         1 9KS       0.038600
     10 H1          -0.5000     0.0890    -0.8620 hn         1 9KS       0.328500
     11 H2           0.7450     1.0550     2.3100 ha         1 9KS       0.170000
     12 H3          -0.4890     0.8970     4.4360 ha         1 9KS       0.136000
     13 H4          -2.6210    -0.3300     4.5420 ha         1 9KS       0.132000
     14 H5          -3.5280    -1.4120     2.5220 ha         1 9KS       0.137000
     15 H6           2.0890    -0.9980    -1.7290 hc         1 9KS       0.063367
     16 H7           1.6300     0.6900    -1.9950 hc         1 9KS       0.063367
     17 H8           3.1250     0.3050    -1.1320 hc         1 9KS       0.063367
     18 H9          -3.2400    -1.0040    -0.0540 ho         1 9KS       0.414000
     19 O2          -2.4030    -1.3830     0.1570 oh         1 9KS      -0.517100
     20 C1           2.1010    -0.0010    -1.3060 c3         1 9KS      -0.169100
@<TRIPOS>BOND
     1     5     4 ar
     2     5     6 ar
     3    19     6 1
     4     4     3 ar
     5     6     9 ar
     6     3     2 ar
     7    20     7 1
     8     9     2 ar
     9     9     1 1
    10     1     7 1
    11     7     8 2
    12     1    10 1
    13     2    11 1
    14     3    12 1
    15     4    13 1
    16     5    14 1
    17    20    15 1
    18    20    16 1
    19    20    17 1
    20    19    18 1
@<TRIPOS>SUBSTRUCTURE
     1 9KS         1 TEMP              0 ****  ****    0 ROOT
