@<TRIPOS>MOLECULE
9KS
   20    20     1     0     0
SMALL
bcc


@<TRIPOS>ATOM
      1 N1           0.0000     0.0000     0.0000 ns         1 9KS      -0.022100
      2 C4          -0.1930     0.5130     2.3530 ca         1 9KS      -0.083000
      3 C5          -0.8850     0.4250     3.5450 ca         1 9KS      -0.104000
      4 C6          -2.0810    -0.2640     3.6050 ca         1 9KS      -0.088000
      5 C7          -2.5910    -0.8700     2.4720 ca         1 9KS      -0.147000
      6 C8          -1.9030    -0.7870     1.2730 ca         1 9KS       0.098100
      7 C2           1.3480     0.0000     0.0000 c          1 9KS       0.558100
      8 O1           1.9550     0.0000     1.0500 o          1 9KS      -0.639100
      9 C3          -0.7010    -0.0880     1.2100 ca         1 9KS      -0.117400
     10 H1          -0.5000     0.0890    -0.8620 hn         1 9KS       0.169500
     11 H2           0.7450     1.0550     2.3100 ha         1 9KS       0.148000
     12 H3          -0.4890     0.8970     4.4360 ha         1 9KS       0.106000
     13 H4          -2.6210    -0.3300     4.5420 ha         1 9KS       0.103000
     14 H5          -3.5280    -1.4120     2.5220 ha         1 9KS       0.111000
     15 H6           2.0890    -0.9980    -1.7290 hc         1 9KS       0.023367
     16 H7           1.6300     0.6900    -1.9950 hc         1 9KS       0.023367
     17 H8           3.1250     0.3050    -1.1320 hc         1 9KS       0.023367
     18 H9          -3.2400    -1.0040    -0.0540 ho         1 9KS       0.400000
     19 O2          -2.4030    -1.3830     0.1570 oh         1 9KS      -0.496100
     20 C1           2.1010    -0.0010    -1.3060 c3         1 9KS      -0.067100
@<TRIPOS>BOND
     1     1     7 1   
     2     1     9 1   
     3     1    10 1   
     4     2     3 ar  
     5     2     9 ar  
     6     2    11 1   
     7     3     4 ar  
     8     3    12 1   
     9     4     5 ar  
    10     4    13 1   
    11     5     6 ar  
    12     5    14 1   
    13     6     9 ar  
    14     6    19 1   
    15     7     8 2   
    16     7    20 1   
    17    15    20 1   
    18    16    20 1   
    19    17    20 1   
    20    18    19 1   
@<TRIPOS>SUBSTRUCTURE
     1 9KS         1 TEMP              0 ****  ****    0 ROOT
