@<TRIPOS>MOLECULE
molecule
   24    25     1     0     0
SMALL
bcc


@<TRIPOS>ATOM
      1 C2           0.0000     0.0000     0.0000 ca         1 9KT       0.028100
      2 C3           1.3910     0.0000     0.0000 ca         1 9KT      -0.141000
      3 C4           2.0820     0.0000     1.1940 ca         1 9KT      -0.122500
      4 C5           1.3960    -0.0020     2.3960 ca         1 9KT      -0.122500
      5 C6           0.0160    -0.0030     2.4100 ca         1 9KT      -0.141000
      6 C7          -0.6920    -0.0010     1.2130 ca         1 9KT       0.028100
      7 C8          -2.7780    -0.0010     0.0780 c          1 9KT       0.632000
      8 C9          -2.0380     0.0100    -1.2180 c          1 9KT       0.632000
      9 N1          -0.6900     0.0060    -1.2090 n          1 9KT      -0.359500
     10 N2          -2.0830    -0.0020     1.2340 n          1 9KT      -0.359500
     11 O1          -3.9920    -0.0110     0.0910 o          1 9KT      -0.573500
     12 O2          -2.6450     0.0100    -2.2700 o          1 9KT      -0.573500
     13 H1           1.9320     0.0020    -0.9380 ha         1 9KT       0.142000
     14 H2           3.1650     0.0010     1.1910 ha         1 9KT       0.137500
     15 H3           1.9450    -0.0020     3.3310 ha         1 9KT       0.137500
     16 H4          -0.5160    -0.0050     3.3530 ha         1 9KT       0.142000
     17 H5          -3.8630    -0.0150     2.3340 h1         1 9KT       0.057367
     18 H6          -2.5210    -0.9010     3.0720 h1         1 9KT       0.057367
     19 H7          -2.5270     0.8680     3.0850 h1         1 9KT       0.057367
     20 H8           0.6750     0.8890    -2.5260 h1         1 9KT       0.057367
     21 H9          -0.6490     0.0090    -3.3010 h1         1 9KT       0.057367
     22 H10          0.6710    -0.8800    -2.5290 h1         1 9KT       0.057367
     23 C10         -2.7950    -0.0130     2.5150 c3         1 9KT       0.084300
     24 C1           0.0500     0.0060    -2.4730 c3         1 9KT       0.084300
@<TRIPOS>BOND
     1    12     8 2
     2    11     7 2
     3     8     7 1
     4     8     9 1
     5     7    10 1
     6    24     9 1
     7     9     1 1
     8    10    23 1
     9    10     6 1
    10     1     6 ar
    11     1     2 ar
    12     6     5 ar
    13     2     3 ar
    14     5     4 ar
    15     3     4 ar
    16     2    13 1
    17     3    14 1
    18     4    15 1
    19     5    16 1
    20    23    17 1
    21    23    18 1
    22    23    19 1
    23    24    20 1
    24    24    21 1
    25    24    22 1
@<TRIPOS>SUBSTRUCTURE
     1 9KT         1 TEMP              0 ****  ****    0 ROOT
