@<TRIPOS>MOLECULE
9KT
   24    25     1     0     0
SMALL
bcc


@<TRIPOS>ATOM
      1 C2           0.0000     0.0000     0.0000 ca         1 9KT      -0.106900
      2 C3           1.3910     0.0000     0.0000 ca         1 9KT      -0.119000
      3 C4           2.0820     0.0000     1.1940 ca         1 9KT      -0.090000
      4 C5           1.3960    -0.0020     2.3960 ca         1 9KT      -0.090000
      5 C6           0.0160    -0.0030     2.4100 ca         1 9KT      -0.119000
      6 C7          -0.6920    -0.0010     1.2130 ca         1 9KT      -0.106900
      7 C8          -2.7780    -0.0010     0.0780 c          1 9KT       0.534000
      8 C9          -2.0380     0.0100    -1.2180 c          1 9KT       0.534000
      9 N1          -0.6900     0.0060    -1.2090 n          1 9KT       0.037500
     10 N2          -2.0830    -0.0020     1.2340 n          1 9KT       0.037500
     11 O1          -3.9920    -0.0110     0.0910 o          1 9KT      -0.613000
     12 O2          -2.6450     0.0100    -2.2700 o          1 9KT      -0.613000
     13 H1           1.9320     0.0020    -0.9380 ha         1 9KT       0.120000
     14 H2           3.1650     0.0010     1.1910 ha         1 9KT       0.107000
     15 H3           1.9450    -0.0020     3.3310 ha         1 9KT       0.107000
     16 H4          -0.5160    -0.0050     3.3530 ha         1 9KT       0.120000
     17 H5          -3.8630    -0.0150     2.3340 h1         1 9KT       0.026867
     18 H6          -2.5210    -0.9010     3.0720 h1         1 9KT       0.026867
     19 H7          -2.5270     0.8680     3.0850 h1         1 9KT       0.026867
     20 H8           0.6750     0.8890    -2.5260 h1         1 9KT       0.026867
     21 H9          -0.6490     0.0090    -3.3010 h1         1 9KT       0.026867
     22 H10          0.6710    -0.8800    -2.5290 h1         1 9KT       0.026867
     23 C10         -2.7950    -0.0130     2.5150 c3         1 9KT       0.048800
     24 C1           0.0500     0.0060    -2.4730 c3         1 9KT       0.048800
@<TRIPOS>BOND
     1     1     2 ar  
     2     1     6 ar  
     3     1     9 1   
     4     2     3 ar  
     5     2    13 1   
     6     3     4 ar  
     7     3    14 1   
     8     4     5 ar  
     9     4    15 1   
    10     5     6 ar  
    11     5    16 1   
    12     6    10 1   
    13     7     8 1   
    14     7    10 1   
    15     7    11 2   
    16     8     9 1   
    17     8    12 2   
    18     9    24 1   
    19    10    23 1   
    20    17    23 1   
    21    18    23 1   
    22    19    23 1   
    23    20    24 1   
    24    21    24 1   
    25    22    24 1   
@<TRIPOS>SUBSTRUCTURE
     1 9KT         1 TEMP              0 ****  ****    0 ROOT
