@<TRIPOS>MOLECULE
molecule
   48    51     1     0     0
SMALL
bcc


@<TRIPOS>ATOM
      1 C1           0.0000     0.0000     0.0000 c          1 9KU       0.645700
      2 C10          4.0200    -0.3380     8.2220 ca         1 9KU      -0.251000
      3 C11          4.9340    -0.2280     9.2650 ca         1 9KU      -0.082000
      4 C12          5.8910    -1.1760     9.4650 ca         1 9KU      -0.173000
      5 C13          5.9610    -2.2870     8.6050 ca         1 9KU      -0.001000
      6 C14          5.0320    -2.4040     7.5420 ca         1 9KU      -0.053000
      7 C15          5.1010    -3.5120     6.6840 ca         1 9KU      -0.065000
      8 C16          6.0600    -4.4590     6.8840 ca         1 9KU      -0.155000
      9 C17          6.9730    -4.3460     7.9290 ca         1 9KU      -0.112000
     10 C18          6.9350    -3.2850     8.7800 ca         1 9KU      -0.144000
     11 C19         -0.0030     1.3770     5.4990 c3         1 9KU       0.096000
     12 C2           1.4690     0.0000     0.0000 cc         1 9KU      -0.062100
     13 C20         -1.4970     1.6590     5.2020 c3         1 9KU      -0.098400
     14 C21         -1.6120     1.2060     3.7230 c3         1 9KU      -0.099400
     15 C3           2.1130     0.0000     1.2270 cd         1 9KU       0.137400
     16 C4           3.5910     0.0000     1.2930 c          1 9KU       0.889800
     17 C5           0.0830    -0.0020     2.3430 cc         1 9KU       0.397900
     18 C6          -0.6550    -0.0040     3.6570 c3         1 9KU       0.102400
     19 C8           2.1940    -0.4660     6.2380 c3         1 9KU       0.074400
     20 C9           4.0550    -1.4020     7.3660 ca         1 9KU       0.181100
     21 N1           1.3840    -0.0020     2.3580 nd         1 9KU      -0.546300
     22 N2           0.2990     0.1340     4.7670 n          1 9KU      -0.483800
     23 N3          -0.6330    -0.0010     1.1930 ns         1 9KU      -0.450400
     24 O1          -0.6280     0.0060    -1.0450 o          1 9KU      -0.690500
     25 O2           2.1710     0.0010    -1.1610 oh         1 9KU      -0.434100
     26 O3           4.2120    -0.0010     2.4890 o          1 9KU      -0.802800
     27 O4           4.2450     0.0020     0.2700 o          1 9KU      -0.802800
     28 O5           3.1530    -1.5210     6.3480 os         1 9KU      -0.272900
     29 O6           1.4430    -1.7290     4.3910 o          1 9KU      -0.533100
     30 H3           6.5950    -1.0750    10.2820 ha         1 9KU       0.122000
     31 H4           4.3980    -3.6140     5.8670 ha         1 9KU       0.168000
     32 H5           6.1120    -5.3140     6.2210 ha         1 9KU       0.128000
     33 H6           7.7250    -5.1130     8.0660 ha         1 9KU       0.117000
     34 H7           7.6520    -3.2100     9.5890 ha         1 9KU       0.123000
     35 H8           0.1480     1.2330     6.5620 h1         1 9KU       0.046700
     36 H9           0.6130     2.1890     5.1310 h1         1 9KU       0.046700
     37 H10         -2.1370     1.0610     5.8400 hc         1 9KU       0.049700
     38 H11         -1.7170     2.7150     5.3000 hc         1 9KU       0.049700
     39 H12         -2.6260     0.9020     3.4940 hc         1 9KU       0.057200
     40 H13         -1.2790     1.9920     3.0550 hc         1 9KU       0.057200
     41 H14         -1.2170    -0.9230     3.7690 h1         1 9KU       0.066700
     42 H15          1.6130    -0.4090     7.1500 h1         1 9KU       0.052200
     43 H16          2.7090     0.4740     6.0780 h1         1 9KU       0.052200
     44 H17         -1.6330    -0.0010     1.2280 hn         1 9KU       0.307500
     45 H18          1.9430     0.7640    -1.6660 ho         1 9KU       0.399000
     46 C7           1.2860    -0.7330     5.0660 c          1 9KU       0.699100
     47 H1           3.2690     0.4310     8.0870 ha         1 9KU       0.128000
     48 H2           4.8840     0.6270     9.9300 ha         1 9KU       0.117000
@<TRIPOS>BOND
     1    13    11 1
     2    13    14 1
     3    24     1 2
     4    11    22 1
     5    14    18 1
     6     1    23 1
     7     1    12 1
     8    23    17 1
     9    25    12 1
    10    12    15 2
    11    17    18 1
    12    17    21 2
    13    22    18 1
    14    22    46 1
    15    19    46 1
    16    19    28 1
    17    15    21 1
    18    15    16 1
    19    46    29 2
    20    27    16 1
    21    16    26 1
    22    28    20 1
    23     2    20 ar
    24     2     3 ar
    25    20     6 ar
    26     3     4 ar
    27     6     7 ar
    28     6     5 ar
    29     7     8 ar
    30     4     5 ar
    31     5    10 ar
    32     8     9 ar
    33    10     9 ar
    34     2    47 1
    35     3    48 1
    36     4    30 1
    37     7    31 1
    38     8    32 1
    39     9    33 1
    40    10    34 1
    41    11    35 1
    42    11    36 1
    43    13    37 1
    44    13    38 1
    45    14    39 1
    46    14    40 1
    47    18    41 1
    48    19    42 1
    49    19    43 1
    50    23    44 1
    51    25    45 1
@<TRIPOS>SUBSTRUCTURE
     1 9KU         1 TEMP              0 ****  ****    0 ROOT
