@<TRIPOS>MOLECULE
9KV
   71    76     1     0     0
SMALL
bcc


@<TRIPOS>ATOM
      1 N3           0.0000     0.0000     0.0000 nc         1 9KV      -0.518100
      2 C4          -1.8580     0.0010    -1.6310 cd         1 9KV       0.019000
      3 C5          -0.3580     1.1180    -4.0270 c          1 9KV       0.558100
      4 C7           0.5440     0.0010    -3.5700 c3         1 9KV      -0.131000
      5 C8           1.7720    -0.0000    -1.3440 ca         1 9KV      -0.259200
      6 C10          1.3550     0.0000     0.0000 ca         1 9KV       0.074400
      7 C15         -5.3130    -0.1950    -3.5850 ca         1 9KV       0.009000
      8 C17         -1.1810     2.6190    -5.7620 c3         1 9KV       0.011700
      9 C20         -5.1690    -0.4720    -4.9460 ca         1 9KV      -0.099000
     10 C21         -6.5880    -0.0240    -3.0450 ca         1 9KV      -0.099000
     11 C22          0.9950    -2.4480    -3.7700 c3         1 9KV      -0.040900
     12 C24         -1.6350     2.4380    -7.2110 c3         1 9KV      -0.039900
     13 C26          4.0580    -0.0010    -0.6320 ca         1 9KV      -0.092000
     14 C28         -7.6990    -0.1300    -3.8580 ca         1 9KV      -0.096500
     15 C1          -0.4420     0.0000    -1.2380 cd         1 9KV       0.350400
     16 C16         -0.0180    -1.3370    -4.0530 c3         1 9KV      -0.108700
     17 C18          3.1250    -0.0010    -1.6480 ca         1 9KV      -0.095000
     18 C19          2.3140     0.0000     1.0170 ca         1 9KV      -0.039000
     19 C23         -0.2870    -1.2650    -5.5570 c3         1 9KV      -0.040900
     20 C25         -0.2880     3.8580    -5.6580 c3         1 9KV      -0.039900
     21 C27          3.6520     0.0010     0.6950 ca         1 9KV      -0.121000
     22 C30         -0.8490    -2.6030    -6.0400 c3         1 9KV      -0.020400
     23 C31          0.4330    -3.7870    -4.2520 c3         1 9KV      -0.020400
     24 C32         -1.0750     5.0930    -6.1030 c3         1 9KV      -0.017400
     25 C33         -2.4210     3.6720    -7.6570 c3         1 9KV      -0.017400
     26 C35         -1.5290     4.9110    -7.5530 c3         1 9KV      -0.028400
     27 C36          0.1630    -3.7140    -5.7570 c3         1 9KV      -0.026400
     28 N13         -0.4270     1.4370    -5.3340 ns         1 9KV      -0.197900
     29 N2           0.6190     0.0010    -2.1070 na         1 9KV       0.330700
     30 C11         -2.9080     0.2260    -0.7880 cc         1 9KV      -0.077000
     31 C12         -4.1410     0.1760    -1.3840 cc         1 9KV      -0.122000
     32 C29         -6.2870    -0.5700    -5.7480 ca         1 9KV      -0.096500
     33 C34         -7.5490    -0.4040    -5.2050 ca         1 9KV      -0.103000
     34 C9          -4.1190    -0.0880    -2.7200 cd         1 9KV       0.054900
     35 S6          -2.4580    -0.2800    -3.2590 ss         1 9KV      -0.247800
     36 H1           1.5360     0.1460    -3.9820 h1         1 9KV       0.062700
     37 H2          -2.0490     2.7470    -5.1270 h1         1 9KV       0.069700
     38 H3          -4.1820    -0.6040    -5.3720 ha         1 9KV       0.111000
     39 H4          -6.7060     0.1900    -1.9900 ha         1 9KV       0.111000
     40 H5           1.1830    -2.5000    -2.7040 hc         1 9KV       0.024950
     41 H6           1.9180    -2.2350    -4.2950 hc         1 9KV       0.024950
     42 H7          -0.7660     2.3150    -7.8470 hc         1 9KV       0.018950
     43 H8          -2.2680     1.5620    -7.2830 hc         1 9KV       0.018950
     44 H9           5.1150    -0.0000    -0.8720 ha         1 9KV       0.102000
     45 H10         -8.6890     0.0010    -3.4390 ha         1 9KV       0.102000
     46 H11         -0.9430    -1.5540    -3.5330 hc         1 9KV       0.095700
     47 H12          3.4490    -0.0020    -2.6820 ha         1 9KV       0.097000
     48 H13          2.0060     0.0010     2.0550 ha         1 9KV       0.110000
     49 H14          0.6380    -1.0540    -6.0790 hc         1 9KV       0.024950
     50 H15         -1.0070    -0.4800    -5.7560 hc         1 9KV       0.024950
     51 H16          0.5770     3.7330    -6.2970 hc         1 9KV       0.018950
     52 H17          0.0310     3.9860    -4.6300 hc         1 9KV       0.018950
     53 H18          4.3950     0.0010     1.4840 ha         1 9KV       0.104000
     54 H19         -1.7730    -2.8160    -5.5160 hc         1 9KV       0.018700
     55 H20         -1.0370    -2.5510    -7.1060 hc         1 9KV       0.018700
     56 H21         -0.4930    -3.9970    -3.7310 hc         1 9KV       0.018700
     57 H22          1.1520    -4.5720    -4.0530 hc         1 9KV       0.018700
     58 H23         -0.4420     5.9680    -6.0310 hc         1 9KV       0.018200
     59 H24         -1.9440     5.2150    -5.4670 hc         1 9KV       0.018200
     60 H25         -2.7400     3.5430    -8.6850 hc         1 9KV       0.018200
     61 H26         -3.2870     3.7970    -7.0180 hc         1 9KV       0.018200
     62 H27         -0.6610     4.7830    -8.1890 hc         1 9KV       0.014200
     63 H28         -2.0880     5.7840    -7.8680 hc         1 9KV       0.014200
     64 H29          1.0890    -3.4990    -6.2780 hc         1 9KV       0.014700
     65 H30         -0.2370    -4.6610    -6.0970 hc         1 9KV       0.014700
     66 H31          0.0870     0.9030    -6.0070 hn         1 9KV       0.192500
     67 H32         -2.7760     0.4270     0.2680 ha         1 9KV       0.138000
     68 H33         -5.0610     0.3360    -0.8350 ha         1 9KV       0.124000
     69 H34         -6.1780    -0.7840    -6.8050 ha         1 9KV       0.102000
     70 H35         -8.4240    -0.4840    -5.8390 ha         1 9KV       0.102000
     71 O14         -1.0220     1.7310    -3.2180 o          1 9KV      -0.615100
@<TRIPOS>BOND
     1     1     6 1   
     2     1    15 2   
     3     2    15 1   
     4     2    30 2   
     5     2    35 1   
     6     3     4 1   
     7     3    28 1   
     8     3    71 2   
     9     4    16 1   
    10     4    29 1   
    11     4    36 1   
    12     5     6 ar  
    13     5    17 ar  
    14     5    29 1   
    15     6    18 ar  
    16     7     9 ar  
    17     7    10 ar  
    18     7    34 1   
    19     8    12 1   
    20     8    20 1   
    21     8    28 1   
    22     8    37 1   
    23     9    32 ar  
    24     9    38 1   
    25    10    14 ar  
    26    10    39 1   
    27    11    16 1   
    28    11    23 1   
    29    11    40 1   
    30    11    41 1   
    31    12    25 1   
    32    12    42 1   
    33    12    43 1   
    34    13    17 ar  
    35    13    21 ar  
    36    13    44 1   
    37    14    33 ar  
    38    14    45 1   
    39    15    29 1   
    40    16    19 1   
    41    16    46 1   
    42    17    47 1   
    43    18    21 ar  
    44    18    48 1   
    45    19    22 1   
    46    19    49 1   
    47    19    50 1   
    48    20    24 1   
    49    20    51 1   
    50    20    52 1   
    51    21    53 1   
    52    22    27 1   
    53    22    54 1   
    54    22    55 1   
    55    23    27 1   
    56    23    56 1   
    57    23    57 1   
    58    24    26 1   
    59    24    58 1   
    60    24    59 1   
    61    25    26 1   
    62    25    60 1   
    63    25    61 1   
    64    26    62 1   
    65    26    63 1   
    66    27    64 1   
    67    27    65 1   
    68    28    66 1   
    69    30    31 1   
    70    30    67 1   
    71    31    34 2   
    72    31    68 1   
    73    32    33 ar  
    74    32    69 1   
    75    33    70 1   
    76    34    35 1   
@<TRIPOS>SUBSTRUCTURE
     1 9KV         1 TEMP              0 ****  ****    0 ROOT
