@<TRIPOS>MOLECULE
molecule
   68    70     1     0     0
SMALL
bcc


@<TRIPOS>ATOM
      1 O1           0.0000     0.0000     0.0000 oh         1 9KX      -0.603800
      2 C1           1.4290     0.0000     0.0000 c3         1 9KX       0.194300
      3 C2           1.9360     0.0000     1.4240 c2         1 9KX      -0.146400
      4 C3           3.4230    -0.1150     1.6680 c3         1 9KX       0.194300
      5 C4           3.9380    -1.3780     0.9650 c3         1 9KX      -0.052700
      6 C5           3.4310    -1.3780    -0.4600 c2         1 9KX      -0.110400
      7 C6           4.2770    -1.4770    -1.4790 ce         1 9KX      -0.132000
      8 C7           3.7640    -1.6020    -2.8520 ce         1 9KX      -0.154000
      9 C8           4.6060    -1.8040    -3.8600 c2         1 9KX      -0.095400
     10 C9           1.1010     0.0980     2.4290 c2         1 9KX      -0.191000
     11 C10          4.1410    -1.9400    -5.2790 c3         1 9KX      -0.033500
     12 C11          4.6470    -3.3320    -5.7520 c3         1 9KX      -0.063000
     13 C12          6.1560    -3.2790    -5.7960 c3         1 9KX      -0.065400
     14 C13          6.6590    -3.1620    -4.3480 c3         1 9KX      -0.079400
     15 C14          6.1100    -1.9080    -3.6570 c3         1 9KX      -0.043200
     16 C15          2.6320    -2.0800    -5.4990 c3         1 9KX      -0.079400
     17 C16          2.5510    -2.7950    -6.8760 c3         1 9KX      -0.077400
     18 C17          3.8930    -3.5510    -7.0550 c3         1 9KX      -0.044700
     19 C18          4.2190    -4.3940    -4.7370 c3         1 9KX      -0.093100
     20 C19          3.6390    -5.0430    -7.2760 c3         1 9KX      -0.166700
     21 C20          4.9720    -5.7630    -7.4890 c3         1 9KX      -0.080100
     22 C21          2.7680    -5.2290    -8.4920 c          1 9KX       0.572300
     23 C22          1.8920    -6.3300    -8.5700 ce         1 9KX      -0.283200
     24 C23          1.1080    -6.4970    -9.6650 cf         1 9KX      -0.031000
     25 C24          0.2000    -7.6380    -9.7460 cf         1 9KX      -0.178000
     26 C25         -0.5710    -7.8040   -10.8240 c2         1 9KX      -0.129200
     27 C26         -1.5080    -8.9810   -10.9070 c3         1 9KX      -0.066900
     28 O            4.0870     1.0340     1.1370 oh         1 9KX      -0.603800
     29 C            1.9440    -1.2630    -0.7030 c3         1 9KX      -0.052700
     30 H1          -0.3140     0.6020    -0.6540 ho         1 9KX       0.401500
     31 H2           1.7980     0.8780    -0.5160 h1         1 9KX       0.046700
     32 H3           3.6110    -0.1910     2.7320 h1         1 9KX       0.046700
     33 H4           3.5700    -2.2560     1.4820 hc         1 9KX       0.057450
     34 H5           5.0210    -1.3770     0.9650 hc         1 9KX       0.057450
     35 H6           5.3410    -1.5580    -1.2910 ha         1 9KX       0.131000
     36 H7           2.7020    -1.5040    -3.0440 ha         1 9KX       0.136000
     37 H8           1.4750     0.0980     3.4450 ha         1 9KX       0.122000
     38 H9           0.0370     0.1810     2.2430 ha         1 9KX       0.122000
     39 H10          4.5510    -1.1520    -5.9000 hc         1 9KX       0.068700
     40 H11          6.5420    -4.1860    -6.2460 hc         1 9KX       0.045200
     41 H12          6.4760    -2.4140    -6.3660 hc         1 9KX       0.045200
     42 H13          6.3420    -4.0370    -3.7930 hc         1 9KX       0.042200
     43 H14          7.7410    -3.1140    -4.3540 hc         1 9KX       0.042200
     44 H15          6.3230    -1.9640    -2.5970 hc         1 9KX       0.050200
     45 H16          6.5870    -1.0320    -4.0780 hc         1 9KX       0.050200
     46 H17          2.1610    -1.1060    -5.5470 hc         1 9KX       0.046700
     47 H18          2.1880    -2.6920    -4.7240 hc         1 9KX       0.046700
     48 H19          2.4290    -2.0650    -7.6670 hc         1 9KX       0.048200
     49 H20          1.7270    -3.4980    -6.8810 hc         1 9KX       0.048200
     50 H21          4.4500    -3.1330    -7.8840 hc         1 9KX       0.071700
     51 H22          4.2830    -3.9840    -3.7360 hc         1 9KX       0.039367
     52 H23          4.8730    -5.2540    -4.8170 hc         1 9KX       0.039367
     53 H24          3.1990    -4.6970    -4.9390 hc         1 9KX       0.039367
     54 H25          3.1390    -5.4570    -6.4080 hc         1 9KX       0.071700
     55 H26          5.2450    -6.2910    -6.5830 hc         1 9KX       0.040700
     56 H27          5.7390    -5.0380    -7.7300 hc         1 9KX       0.040700
     57 H28          4.8740    -6.4710    -8.3030 hc         1 9KX       0.040700
     58 H29          1.8440    -7.0420    -7.7550 ha         1 9KX       0.133000
     59 H30          1.1560    -5.7850   -10.4790 ha         1 9KX       0.151000
     60 H31          0.1520    -8.3510    -8.9310 ha         1 9KX       0.133000
     61 H32         -0.5240    -7.0910   -11.6390 ha         1 9KX       0.130000
     62 H33         -0.9370    -9.9000   -10.8660 hc         1 9KX       0.046700
     63 H34         -2.0590    -8.9390   -11.8390 hc         1 9KX       0.046700
     64 H35         -2.2020    -8.9490   -10.0760 hc         1 9KX       0.046700
     65 H36          4.6100     1.4350     1.8120 ho         1 9KX       0.401500
     66 H37          1.7550    -1.1880    -1.7670 hc         1 9KX       0.057450
     67 H38          1.4410    -2.1330    -0.2980 hc         1 9KX       0.057450
     68 O2           2.8210    -4.4310    -9.4050 o          1 9KX      -0.546100
@<TRIPOS>BOND
     1    10     3 2
     2    28     4 1
     3     3     4 1
     4     3     2 1
     5     4     5 1
     6     2     1 1
     7     2    29 1
     8     5     6 1
     9    29     6 1
    10     6     7 2
    11     7     8 1
    12     8     9 2
    13     9    11 1
    14     9    15 1
    15    16    11 1
    16    16    17 1
    17    11    12 1
    18    15    14 1
    19    19    12 1
    20    17    18 1
    21    68    22 2
    22    12    18 1
    23    12    13 1
    24    14    13 1
    25    22    23 1
    26    22    20 1
    27    18    20 1
    28    26    27 1
    29    26    25 2
    30    23    24 2
    31    24    25 1
    32    20    21 1
    33     1    30 1
    34     2    31 1
    35     4    32 1
    36     5    33 1
    37     5    34 1
    38     7    35 1
    39     8    36 1
    40    10    37 1
    41    10    38 1
    42    11    39 1
    43    13    40 1
    44    13    41 1
    45    14    42 1
    46    14    43 1
    47    15    44 1
    48    15    45 1
    49    16    46 1
    50    16    47 1
    51    17    48 1
    52    17    49 1
    53    18    50 1
    54    19    51 1
    55    19    52 1
    56    19    53 1
    57    20    54 1
    58    21    55 1
    59    21    56 1
    60    21    57 1
    61    23    58 1
    62    24    59 1
    63    25    60 1
    64    26    61 1
    65    27    62 1
    66    27    63 1
    67    27    64 1
    68    28    65 1
    69    29    66 1
    70    29    67 1
@<TRIPOS>SUBSTRUCTURE
     1 9KX         1 TEMP              0 ****  ****    0 ROOT
