@<TRIPOS>MOLECULE
9KY
   68    72     1     0     0
SMALL
bcc


@<TRIPOS>ATOM
      1 N3           0.0000     0.0000     0.0000 nc         1 9KY      -0.513100
      2 C4          -0.1050    -1.2810    -4.0350 c          1 9KY       0.560100
      3 C5           0.5390    -0.0020    -3.5660 c3         1 9KY      -0.141000
      4 C6           1.7700    -0.0010    -1.3440 ca         1 9KY      -0.250200
      5 C7           1.3560     0.0000     0.0000 ca         1 9KY       0.068400
      6 C13         -2.2350     0.3810    -2.9190 ca         1 9KY      -0.107000
      7 C15         -4.1740    -0.3770    -1.0850 ca         1 9KY      -0.074000
      8 C17         -4.5350     0.0010    -2.3660 ca         1 9KY      -0.104300
      9 C21         -5.9870     0.0010    -2.7670 c3         1 9KY       0.283700
     10 C22          1.8820    -0.0490    -5.6720 c3         1 9KY      -0.070400
     11 C24          0.1730    -3.6590    -6.1410 c3         1 9KY      -0.039400
     12 C26          4.0540    -0.0020    -0.6300 ca         1 9KY      -0.088000
     13 C28          3.9550     1.5740    -4.3880 c3         1 9KY      -0.019900
     14 C1          -0.4400     0.0000    -1.2340 cd         1 9KY       0.298400
     15 N2           0.6170    -0.0010    -2.1030 na         1 9KY       0.347700
     16 N8          -0.4370    -1.4320    -5.3330 ns         1 9KY      -0.201900
     17 C14         -0.9790    -2.7090    -5.8050 c3         1 9KY       0.015700
     18 C31         -0.3930    -4.9910    -6.6360 c3         1 9KY      -0.017400
     19 C32         -1.2390    -4.7530    -7.8880 c3         1 9KY      -0.028400
     20 C30         -2.3910    -3.8040    -7.5520 c3         1 9KY      -0.017400
     21 C25         -1.8250    -2.4700    -7.0580 c3         1 9KY      -0.039400
     22 C11          1.9480     0.1030    -4.1510 c3         1 9KY      -0.069700
     23 C29          3.2920     0.0560    -6.2580 c3         1 9KY      -0.019900
     24 C33          3.8890     1.4200    -5.9090 c3         1 9KY      -0.027400
     25 C23          2.5460     1.4680    -3.8020 c3         1 9KY      -0.070400
     26 C19          2.3170     0.0000     1.0150 ca         1 9KY      -0.036000
     27 C27          3.6450    -0.0010     0.6960 ca         1 9KY      -0.124000
     28 C18          3.1240    -0.0040    -1.6480 ca         1 9KY      -0.152000
     29 C9          -1.8660     0.0000    -1.6280 ca         1 9KY      -0.068900
     30 C12         -2.8460    -0.3800    -0.7110 ca         1 9KY      -0.107000
     31 C16         -3.5670     0.3800    -3.2800 ca         1 9KY      -0.074000
     32 O20         -6.5580     1.2810    -2.4860 oh         1 9KY      -0.586800
     33 H1          -0.0530     0.8430    -3.8960 h1         1 9KY       0.066700
     34 H3          -4.9360    -0.6720    -0.3740 ha         1 9KY       0.104500
     35 H4          -6.5170    -0.7610    -2.2090 h1         1 9KY      -0.013800
     36 H5          -6.0690    -0.2050    -3.8280 h1         1 9KY      -0.013800
     37 H6           1.4610    -1.0170    -5.9190 hc         1 9KY       0.036450
     38 H7           1.2610     0.7360    -6.0860 hc         1 9KY       0.036450
     39 H8           0.7880    -3.2190    -6.9170 hc         1 9KY       0.019950
     40 H9           0.7690    -3.8290    -5.2530 hc         1 9KY       0.019950
     41 H10          5.1110    -0.0030    -0.8660 ha         1 9KY       0.100000
     42 H11          4.3760     2.5410    -4.1420 hc         1 9KY       0.018450
     43 H12          4.5760     0.7880    -3.9740 hc         1 9KY       0.018450
     44 H13         -0.3740    -0.6540    -5.9580 hn         1 9KY       0.188500
     45 H14         -1.5960    -3.1520    -5.0340 h1         1 9KY       0.064700
     46 H15         -1.0110    -5.4300    -5.8620 hc         1 9KY       0.017700
     47 H16          0.4240    -5.6620    -6.8760 hc         1 9KY       0.017700
     48 H17         -0.6220    -4.3110    -8.6610 hc         1 9KY       0.015200
     49 H18         -1.6410    -5.6970    -8.2360 hc         1 9KY       0.015200
     50 H19         -2.9880    -3.6340    -8.4400 hc         1 9KY       0.017700
     51 H20         -3.0050    -4.2440    -6.7760 hc         1 9KY       0.017700
     52 H21         -2.6420    -1.8000    -6.8180 hc         1 9KY       0.019950
     53 H22         -1.2070    -2.0320    -7.8320 hc         1 9KY       0.019950
     54 H23          2.5750    -0.6790    -3.7390 hc         1 9KY       0.072700
     55 H24          3.2430    -0.0500    -7.3350 hc         1 9KY       0.018450
     56 H25          3.9140    -0.7260    -5.8400 hc         1 9KY       0.018450
     57 H26          3.2640     2.2030    -6.3220 hc         1 9KY       0.016200
     58 H27          4.8880     1.4920    -6.3210 hc         1 9KY       0.016200
     59 H28          1.9240     2.2510    -4.2200 hc         1 9KY       0.036450
     60 H29          2.5950     1.5750    -2.7250 hc         1 9KY       0.036450
     61 H30          2.0090     0.0010     2.0540 ha         1 9KY       0.109000
     62 H31          4.3860     0.0000     1.4860 ha         1 9KY       0.103000
     63 H32          3.4500    -0.0050    -2.6810 ha         1 9KY       0.147000
     64 H33         -2.5650    -0.6770     0.2920 ha         1 9KY       0.119000
     65 H34         -3.8560     0.6750    -4.2820 ha         1 9KY       0.104500
     66 H35         -7.4670     1.2820    -2.7360 ho         1 9KY       0.387000
     67 O10         -0.3250    -2.1750    -3.2440 o          1 9KY      -0.617100
     68 H2          -1.4790     0.6770    -3.6360 ha         1 9KY       0.119000
@<TRIPOS>BOND
     1     1     5 1   
     2     1    14 2   
     3     2     3 1   
     4     2    16 1   
     5     2    67 2   
     6     3    15 1   
     7     3    22 1   
     8     3    33 1   
     9     4     5 ar  
    10     4    15 1   
    11     4    28 ar  
    12     5    26 ar  
    13     6    29 ar  
    14     6    31 ar  
    15     6    68 1   
    16     7     8 ar  
    17     7    30 ar  
    18     7    34 1   
    19     8     9 1   
    20     8    31 ar  
    21     9    32 1   
    22     9    35 1   
    23     9    36 1   
    24    10    22 1   
    25    10    23 1   
    26    10    37 1   
    27    10    38 1   
    28    11    17 1   
    29    11    18 1   
    30    11    39 1   
    31    11    40 1   
    32    12    27 ar  
    33    12    28 ar  
    34    12    41 1   
    35    13    24 1   
    36    13    25 1   
    37    13    42 1   
    38    13    43 1   
    39    14    15 1   
    40    14    29 1   
    41    16    17 1   
    42    16    44 1   
    43    17    21 1   
    44    17    45 1   
    45    18    19 1   
    46    18    46 1   
    47    18    47 1   
    48    19    20 1   
    49    19    48 1   
    50    19    49 1   
    51    20    21 1   
    52    20    50 1   
    53    20    51 1   
    54    21    52 1   
    55    21    53 1   
    56    22    25 1   
    57    22    54 1   
    58    23    24 1   
    59    23    55 1   
    60    23    56 1   
    61    24    57 1   
    62    24    58 1   
    63    25    59 1   
    64    25    60 1   
    65    26    27 ar  
    66    26    61 1   
    67    27    62 1   
    68    28    63 1   
    69    29    30 ar  
    70    30    64 1   
    71    31    65 1   
    72    32    66 1   
@<TRIPOS>SUBSTRUCTURE
     1 9KY         1 TEMP              0 ****  ****    0 ROOT
