@<TRIPOS>MOLECULE
molecule
   32    33     1     0     0
SMALL
bcc


@<TRIPOS>ATOM
      1 C3           0.0000     0.0000     0.0000 ca         1 9KZ      -0.241900
      2 C8           1.6060     0.0240     4.7000 ca         1 9KZ      -0.111000
      3 C9           0.2160     0.0250     4.7810 ca         1 9KZ      -0.131000
      4 O1          -1.0500    -1.0540    -1.7990 o          1 9KZ      -0.538000
      5 C1          -1.8130     1.0890    -3.1110 c3         1 9KZ       0.143400
      6 C2          -0.7440    -0.0010    -1.2760 c          1 9KZ       0.654700
      7 C10         -0.5490     0.0190     3.6550 ca         1 9KZ      -0.103000
      8 C4           1.4060     0.0000     0.0000 ca         1 9KZ       0.480600
      9 C5           2.1430    -0.0010    -1.3150 c3         1 9KZ      -0.154400
     10 C6           1.4880     0.0120     2.3100 ca         1 9KZ       0.440600
     11 C7           2.2410     0.0130     3.4960 ca         1 9KZ      -0.169300
     12 C12         -0.6840     0.0070     1.2100 ca         1 9KZ       0.015700
     13 C11          0.0720     0.0130     2.3940 ca         1 9KZ      -0.165300
     14 O           -1.0840     1.1650    -1.8580 os         1 9KZ      -0.423900
     15 C           -2.1080     2.5020    -3.6170 c3         1 9KZ      -0.096100
     16 C13         -2.1910     0.0080     1.2510 c3         1 9KZ      -0.058800
     17 N            2.0900     0.0000     1.1140 nb         1 9KZ      -0.689000
     18 H1           2.1930     0.0290     5.6110 ha         1 9KZ       0.134000
     19 H2          -0.2630     0.0350     5.7530 ha         1 9KZ       0.132000
     20 H3          -2.7460     0.5600    -2.9540 h1         1 9KZ       0.048700
     21 H4          -1.2170     0.5600    -3.8440 h1         1 9KZ       0.048700
     22 H5          -1.6300     0.0200     3.7310 ha         1 9KZ       0.136000
     23 H6           1.7680    -0.8030    -1.9390 hc         1 9KZ       0.060700
     24 H7           3.2010    -0.1480    -1.1360 hc         1 9KZ       0.060700
     25 H8           1.9900     0.9480    -1.8150 hc         1 9KZ       0.060700
     26 H9           3.3240     0.0120     3.4520 ha         1 9KZ       0.151000
     27 H10         -2.7220     3.0240    -2.8930 hc         1 9KZ       0.048033
     28 H11         -2.6340     2.4450    -4.5620 hc         1 9KZ       0.048033
     29 H12         -1.1770     3.0390    -3.7540 hc         1 9KZ       0.048033
     30 H13         -2.5450     1.0000     1.5070 hc         1 9KZ       0.056700
     31 H14         -2.5330    -0.7000     1.9960 hc         1 9KZ       0.056700
     32 H15         -2.5790    -0.2740     0.2800 hc         1 9KZ       0.056700
@<TRIPOS>BOND
     1     4     6 2
     2    16    12 1
     3    15     5 1
     4     6    14 1
     5     6     1 1
     6    12     1 ar
     7    12    13 ar
     8    14     5 1
     9     7    13 ar
    10     7     3 ar
    11     1     8 ar
    12    13    10 ar
    13     3     2 ar
    14     8     9 1
    15     8    17 ar
    16    10    17 ar
    17    10    11 ar
    18     2    11 ar
    19     2    18 1
    20     3    19 1
    21     5    20 1
    22     5    21 1
    23     7    22 1
    24     9    23 1
    25     9    24 1
    26     9    25 1
    27    11    26 1
    28    15    27 1
    29    15    28 1
    30    15    29 1
    31    16    30 1
    32    16    31 1
    33    16    32 1
@<TRIPOS>SUBSTRUCTURE
     1 9KZ         1 TEMP              0 ****  ****    0 ROOT
