@<TRIPOS>MOLECULE
molecule
   42    44     1     0     0
SMALL
bcc


@<TRIPOS>ATOM
      1 O6'          0.0000     0.0000     0.0000 oh         1 9L2      -0.598800
      2 C6'          1.4290     0.0000     0.0000 c3         1 9L2       0.158400
      3 C5'          1.9400     0.0000     1.4420 c3         1 9L2       0.128100
      4 C4'          3.4660     0.1260     1.4440 c3         1 9L2       0.112100
      5 O4'          3.8440     1.3720     0.8550 oh         1 9L2      -0.582800
      6 C3'          3.9730     0.0650     2.8870 c3         1 9L2       0.100100
      7 O3'          5.4020     0.1070     2.8940 oh         1 9L2      -0.604800
      8 O5'          1.5630    -1.2200     2.0820 os         1 9L2      -0.339600
      9 C1'          1.9700    -1.3130     3.4490 c3         1 9L2       0.139800
     10 C2'          3.4970    -1.2410     3.5300 c3         1 9L2       0.067500
     11 N2'          3.9150    -1.2760     4.9380 nz         1 9L2      -0.802600
     12 C1           1.4970    -2.6220     4.0260 cc         1 9L2       0.313800
     13 N2           0.5860    -2.7600     5.0140 na         1 9L2      -0.282900
     14 C3           0.4340    -4.0980     5.2470 cc         1 9L2      -0.222600
     15 C4           1.2640    -4.7410     4.3850 cd         1 9L2       0.392800
     16 N5           1.8950    -3.8040     3.6480 nd         1 9L2      -0.659000
     17 C6           1.4390    -6.2100     4.2690 ca         1 9L2      -0.133500
     18 C7           2.3300    -6.7370     3.3360 ca         1 9L2      -0.107500
     19 C8           2.4880    -8.1040     3.2320 ca         1 9L2      -0.123500
     20 C9           1.7670    -8.9510     4.0530 ca         1 9L2      -0.107000
     21 C10          0.8820    -8.4340     4.9830 ca         1 9L2      -0.123500
     22 C11          0.7180    -7.0670     5.0980 ca         1 9L2      -0.107500
     23 H1          -0.3140     0.0470    -0.8880 ho         1 9L2       0.423000
     24 H2           1.7900     0.8840    -0.5110 h1         1 9L2       0.049200
     25 H3           1.7900    -0.8850    -0.5110 h1         1 9L2       0.049200
     26 H4           1.5110     0.8360     1.9810 h1         1 9L2       0.070700
     27 H5           3.8950    -0.6920     0.8770 h1         1 9L2       0.078700
     28 H6           4.5540     1.2320     0.2510 ho         1 9L2       0.432000
     29 H7           3.5790     0.9060     3.4440 h1         1 9L2       0.060700
     30 H8           5.6910     0.9520     3.1950 ho         1 9L2       0.437000
     31 H9           1.5410    -0.4900     4.0080 h1         1 9L2       0.047700
     32 H10          3.9260    -2.0820     2.9990 hx         1 9L2       0.159700
     33 H11          4.8730    -0.9970     5.0090 hn         1 9L2       0.457800
     34 H12          3.8110    -2.2060     5.2940 hn         1 9L2       0.457800
     35 H14          0.1110    -2.0190     5.4890 hn         1 9L2       0.308700
     36 H15         -0.2200    -4.5570     5.9780 h4         1 9L2       0.202000
     37 H17          2.8960    -6.0750     2.6920 ha         1 9L2       0.133500
     38 H18          3.1800    -8.5140     2.5070 ha         1 9L2       0.141000
     39 H19          1.8930   -10.0230     3.9670 ha         1 9L2       0.142000
     40 H20          0.3200    -9.1020     5.6250 ha         1 9L2       0.141000
     41 H21          0.0250    -6.6630     5.8260 ha         1 9L2       0.133500
     42 H2'3         3.3570    -0.6360     5.4680 hn         1 9L2       0.457800
@<TRIPOS>BOND
     1     7     6 1
     2     5     4 1
     3     6     4 1
     4     6    10 1
     5     4     3 1
     6    11    10 1
     7    10     9 1
     8     1     2 1
     9     3     2 1
    10     3     8 1
    11     9     8 1
    12     9    12 1
    13    13    12 1
    14    13    14 1
    15    12    16 2
    16    14    15 2
    17    16    15 1
    18    15    17 1
    19    17    18 ar
    20    17    22 ar
    21    18    19 ar
    22    22    21 ar
    23    19    20 ar
    24    21    20 ar
    25     1    23 1
    26     2    24 1
    27     2    25 1
    28     3    26 1
    29     4    27 1
    30     5    28 1
    31     6    29 1
    32     7    30 1
    33     9    31 1
    34    10    32 1
    35    11    33 1
    36    11    34 1
    37    13    35 1
    38    14    36 1
    39    18    37 1
    40    19    38 1
    41    20    39 1
    42    21    40 1
    43    22    41 1
    44    42    11 1
@<TRIPOS>SUBSTRUCTURE
     1 9L2         1 TEMP              0 ****  ****    0 ROOT
