@<TRIPOS>MOLECULE
9L4
   60    64     1     0     0
SMALL
bcc


@<TRIPOS>ATOM
      1 N1           0.0000     0.0000     0.0000 na         1 9L4       0.363700
      2 N3           0.6430    -0.0000     2.0970 nc         1 9L4      -0.522100
      3 C4           1.3820     0.0000     0.0000 ca         1 9L4      -0.241200
      4 C5           1.7750     0.0000     1.3500 ca         1 9L4       0.080400
      5 C6          -1.6460    -1.2920    -1.2310 c          1 9L4       0.530100
      6 C7          -0.8700    -0.0000    -1.1790 c3         1 9L4      -0.154000
      7 C8           2.3430    -0.0000    -1.0020 ca         1 9L4      -0.150000
      8 C10          3.1360     0.0040     1.6720 ca         1 9L4      -0.055000
      9 C15          4.0770     0.0020     0.6660 ca         1 9L4       0.056900
     10 C17         -4.1450    -2.9600    -3.2500 ca         1 9L4      -0.072600
     11 C21         -3.4500    -3.4090    -0.9830 ca         1 9L4      -0.146000
     12 C22         -4.2090    -4.5580    -0.9740 ca         1 9L4      -0.057000
     13 C24         -2.1230    -0.3660     3.0760 ca         1 9L4      -0.088000
     14 O20         -6.4510    -6.5020    -3.2010 o          1 9L4      -0.876300
     15 O29         -5.7900    -6.8490    -1.1100 o          1 9L4      -0.876300
     16 C16         -4.9360    -4.9210    -2.1110 ca         1 9L4      -0.091600
     17 C12         -3.4140    -2.6060    -2.1190 ca         1 9L4      -0.148400
     18 C23         -0.0170     0.1340    -2.4410 c3         1 9L4      -0.072700
     19 C34         -0.9070    -0.0220    -3.6760 c3         1 9L4      -0.067900
     20 C37         -0.0540     0.1110    -4.9400 c3         1 9L4      -0.019900
     21 C38          0.6120     1.4880    -4.9620 c3         1 9L4      -0.028400
     22 C36          1.5020     1.6450    -3.7270 c3         1 9L4      -0.019900
     23 C35          0.6490     1.5110    -2.4630 c3         1 9L4      -0.067900
     24 C2          -0.4040    -0.0070     1.3080 cd         1 9L4       0.317400
     25 F27          5.3910     0.0070     0.9770 f          1 9L4      -0.123900
     26 C11          3.6830     0.0010    -0.6680 ca         1 9L4       0.081900
     27 F26          4.6170    -0.0020    -1.6440 f          1 9L4      -0.123900
     28 C14         -1.8120    -0.0070     1.7640 ca         1 9L4      -0.086900
     29 C32         -3.4370    -0.3710     3.4930 ca         1 9L4      -0.093000
     30 C30         -4.4480    -0.0150     2.6150 ca         1 9L4      -0.023600
     31 Cl33        -6.1000    -0.0240     3.1470 cl         1 9L4      -0.024400
     32 C31         -4.1430     0.3470     1.3130 ca         1 9L4      -0.093000
     33 C25         -2.8330     0.3510     0.8830 ca         1 9L4      -0.088000
     34 C18         -4.9020    -4.1100    -3.2490 ca         1 9L4      -0.048000
     35 H1          -1.5600     0.8330    -1.1180 h1         1 9L4       0.066700
     36 H2           2.0420    -0.0010    -2.0420 ha         1 9L4       0.169000
     37 H3           3.4480    -0.0810     2.7060 ha         1 9L4       0.127000
     38 H4          -2.8830    -3.1290    -0.1040 ha         1 9L4       0.155000
     39 H5          -4.2360    -5.1830    -0.0900 ha         1 9L4       0.129000
     40 H6          -1.3340    -0.6450     3.7640 ha         1 9L4       0.122000
     41 H8          -2.8730    -0.6950    -2.7480 hn         1 9L4       0.180500
     42 H9           0.7460    -0.6340    -2.4500 hc         1 9L4       0.071700
     43 H10         -1.3760    -0.9980    -3.6610 hc         1 9L4       0.036450
     44 H11         -1.6670     0.7500    -3.6720 hc         1 9L4       0.036450
     45 H12         -0.6850     0.0030    -5.8140 hc         1 9L4       0.019950
     46 H13          0.7090    -0.6580    -4.9420 hc         1 9L4       0.019950
     47 H14          1.2170     1.5810    -5.8550 hc         1 9L4       0.014200
     48 H15         -0.1510     2.2570    -4.9550 hc         1 9L4       0.014200
     49 H16          1.9710     2.6210    -3.7420 hc         1 9L4       0.019950
     50 H17          2.2620     0.8730    -3.7310 hc         1 9L4       0.019950
     51 H18         -0.1130     2.2800    -2.4600 hc         1 9L4       0.036450
     52 H19          1.2810     1.6180    -1.5890 hc         1 9L4       0.036450
     53 H20         -3.6800    -0.6500     4.5120 ha         1 9L4       0.115500
     54 H21         -4.9370     0.6250     0.6300 ha         1 9L4       0.115500
     55 H22         -2.5970     0.6330    -0.1360 ha         1 9L4       0.122000
     56 H23         -5.4700    -4.3850    -4.1290 ha         1 9L4       0.145000
     57 N9          -2.6440    -1.4430    -2.1240 ns         1 9L4      -0.009100
     58 C13         -5.7510    -6.1520    -2.1040 c          1 9L4       0.970200
     59 O19         -1.3710    -2.1950    -0.4690 o          1 9L4      -0.611100
     60 Cl28        -4.0960    -1.9540    -4.6630 cl         1 9L4      -0.090400
@<TRIPOS>BOND
     1     1     3 1   
     2     1     6 1   
     3     1    24 1   
     4     2     4 1   
     5     2    24 2   
     6     3     4 ar  
     7     3     7 ar  
     8     4     8 ar  
     9     5     6 1   
    10     5    57 1   
    11     5    59 2   
    12     6    18 1   
    13     6    35 1   
    14     7    26 ar  
    15     7    36 1   
    16     8     9 ar  
    17     8    37 1   
    18     9    25 1   
    19     9    26 ar  
    20    10    17 ar  
    21    10    34 ar  
    22    10    60 1   
    23    11    12 ar  
    24    11    17 ar  
    25    11    38 1   
    26    12    16 ar  
    27    12    39 1   
    28    13    28 ar  
    29    13    29 ar  
    30    13    40 1   
    31    14    58 1   
    32    15    58 1   
    33    16    34 ar  
    34    16    58 1   
    35    17    57 1   
    36    18    19 1   
    37    18    23 1   
    38    18    42 1   
    39    19    20 1   
    40    19    43 1   
    41    19    44 1   
    42    20    21 1   
    43    20    45 1   
    44    20    46 1   
    45    21    22 1   
    46    21    47 1   
    47    21    48 1   
    48    22    23 1   
    49    22    49 1   
    50    22    50 1   
    51    23    51 1   
    52    23    52 1   
    53    24    28 1   
    54    26    27 1   
    55    28    33 ar  
    56    29    30 ar  
    57    29    53 1   
    58    30    31 1   
    59    30    32 ar  
    60    32    33 ar  
    61    32    54 1   
    62    33    55 1   
    63    34    56 1   
    64    41    57 1   
@<TRIPOS>SUBSTRUCTURE
     1 9L4         1 TEMP              0 ****  ****    0 ROOT
