@<TRIPOS>MOLECULE
9L5
   49    51     1     0     0
SMALL
bcc


@<TRIPOS>ATOM
      1 CAA          0.0000     0.0000     0.0000 c3         1 9L5      -0.014100
      2 CAB          2.9820    -4.8050    -0.0130 c3         1 9L5      -0.004400
      3 CAC          2.2660     0.3640    11.3910 c3         1 9L5       0.091200
      4 CAD          4.5070     0.4370     8.6130 c3         1 9L5      -0.019100
      5 CAE          0.5040     2.8960    11.7010 c3         1 9L5       0.020600
      6 CAH          2.2650     0.0300     4.1200 ca         1 9L5      -0.034000
      7 CAI          2.0300     0.0000     2.7780 ca         1 9L5      -0.167000
      8 CAJ          1.5960     2.2910     8.3140 cc         1 9L5       0.393200
      9 CAK          2.9560    -2.2880     4.0850 ca         1 9L5       0.049000
     10 CAL          1.5310     0.0000     0.0000 c3         1 9L5       0.011000
     11 CAP          2.9890    -1.0600     6.2420 c          1 9L5       0.602700
     12 CAQ          2.7330    -1.1100     4.7880 ca         1 9L5      -0.195600
     13 CAR          2.7360    -3.5190     0.7320 cc         1 9L5       0.308300
     14 CAS          1.8530     1.3140    10.2970 cd         1 9L5      -0.216600
     15 CAT          2.1820     1.2140     8.9880 cc         1 9L5      -0.344600
     16 CAU          2.2470    -2.3380     0.0100 c          1 9L5       0.484200
     17 CAV          2.7220    -2.3260     2.7050 ca         1 9L5       0.019400
     18 CAW          2.2520    -1.1690     2.0510 ca         1 9L5      -0.079400
     19 CAX          3.0270     0.1320     8.3660 c3         1 9L5       0.127000
     20 NAM          0.9400     3.0120     9.1870 nd         1 9L5      -0.646800
     21 NAN          2.9360    -3.4640     2.0170 nd         1 9L5      -0.409100
     22 NAO          2.7730     0.0820     6.9240 ns         1 9L5      -0.197900
     23 NAY          1.0820     2.4120    10.4450 na         1 9L5       0.497400
     24 NAZ          2.0180    -1.1950     0.6930 n          1 9L5       0.084000
     25 OAF          3.3940    -2.0480     6.8220 o          1 9L5      -0.650100
     26 H1          -0.3610     1.0120     0.1350 hc         1 9L5       0.014700
     27 H2          -0.3610    -0.3890    -0.9440 hc         1 9L5       0.014700
     28 H3          -0.3610    -0.6230     0.8090 hc         1 9L5       0.014700
     29 H4           2.0610    -5.1370    -0.4760 hc         1 9L5       0.020367
     30 H5           3.3320    -5.5620     0.6780 hc         1 9L5       0.020367
     31 H6           3.7320    -4.6410    -0.7790 hc         1 9L5       0.020367
     32 H7           2.5900    -0.5720    10.9530 hc         1 9L5       0.015700
     33 H8           3.0790     0.7980    11.9590 hc         1 9L5       0.015700
     34 H9           1.4230     0.1820    12.0480 hc         1 9L5       0.015700
     35 H10          4.9500    -0.3660     9.1900 hc         1 9L5       0.012367
     36 H11          5.0210     0.5250     7.6630 hc         1 9L5       0.012367
     37 H12          4.5970     1.3670     9.1610 hc         1 9L5       0.012367
     38 H13          1.2920     3.0330    12.4320 h1         1 9L5       0.023033
     39 H14         -0.2120     2.1730    12.0720 h1         1 9L5       0.023033
     40 H15          0.0050     3.8420    11.5270 h1         1 9L5       0.023033
     41 H16          2.0930     0.9450     4.6750 ha         1 9L5       0.102000
     42 H17          1.6690     0.8880     2.2730 ha         1 9L5       0.125000
     43 H18          1.6750     2.4940     7.2530 h4         1 9L5      -0.001900
     44 H19          3.3170    -3.1690     4.6010 ha         1 9L5       0.143000
     45 H20          1.8920    -0.0020    -1.0210 h1         1 9L5       0.044700
     46 H21          1.8920     0.8860     0.5090 h1         1 9L5       0.044700
     47 H22          2.7760    -0.8240     8.8100 h1         1 9L5       0.057700
     48 H23          2.4840     0.9080     6.4390 hn         1 9L5       0.181500
     49 OAG          2.0490    -2.3870    -1.1900 o          1 9L5      -0.662500
@<TRIPOS>BOND
     1     1    10 1   
     2     1    26 1   
     3     1    27 1   
     4     1    28 1   
     5     2    13 1   
     6     2    29 1   
     7     2    30 1   
     8     2    31 1   
     9     3    14 1   
    10     3    32 1   
    11     3    33 1   
    12     3    34 1   
    13     4    19 1   
    14     4    35 1   
    15     4    36 1   
    16     4    37 1   
    17     5    23 1   
    18     5    38 1   
    19     5    39 1   
    20     5    40 1   
    21     6     7 ar  
    22     6    12 ar  
    23     6    41 1   
    24     7    18 ar  
    25     7    42 1   
    26     8    15 1   
    27     8    20 2   
    28     8    43 1   
    29     9    12 ar  
    30     9    17 ar  
    31     9    44 1   
    32    10    24 1   
    33    10    45 1   
    34    10    46 1   
    35    11    12 1   
    36    11    22 1   
    37    11    25 2   
    38    13    16 1   
    39    13    21 2   
    40    14    15 2   
    41    14    23 1   
    42    15    19 1   
    43    16    24 1   
    44    16    49 2   
    45    17    18 ar  
    46    17    21 1   
    47    18    24 1   
    48    19    22 1   
    49    19    47 1   
    50    20    23 1   
    51    22    48 1   
@<TRIPOS>SUBSTRUCTURE
     1 9L5         1 TEMP              0 ****  ****    0 ROOT
