@<TRIPOS>MOLECULE
molecule
   49    51     1     0     0
SMALL
bcc


@<TRIPOS>ATOM
      1 CAA          0.0000     0.0000     0.0000 c3         1 9L5      -0.115100
      2 CAB          2.9820    -4.8050    -0.0130 c3         1 9L5      -0.107400
      3 CAC          2.2660     0.3640    11.3910 c3         1 9L5      -0.030800
      4 CAD          4.5070     0.4370     8.6130 c3         1 9L5      -0.107100
      5 CAE          0.5040     2.8960    11.7010 c3         1 9L5       0.063600
      6 CAH          2.2650     0.0300     4.1200 ca         1 9L5      -0.060000
      7 CAI          2.0300     0.0000     2.7780 ca         1 9L5      -0.188000
      8 CAJ          1.5960     2.2910     8.3140 cc         1 9L5       0.336200
      9 CAK          2.9560    -2.2880     4.0850 ca         1 9L5       0.015000
     10 CAL          1.5310     0.0000     0.0000 c3         1 9L5       0.089000
     11 CAP          2.9890    -1.0600     6.2420 c          1 9L5       0.679700
     12 CAQ          2.7330    -1.1100     4.7880 ca         1 9L5      -0.186600
     13 CAR          2.7360    -3.5190     0.7320 cc         1 9L5       0.381300
     14 CAS          1.8530     1.3140    10.2970 cd         1 9L5      -0.053600
     15 CAT          2.1820     1.2140     8.9880 cc         1 9L5      -0.326600
     16 CAU          2.2470    -2.3380     0.0100 c          1 9L5       0.562200
     17 CAV          2.7220    -2.3260     2.7050 ca         1 9L5       0.063400
     18 CAW          2.2520    -1.1690     2.0510 ca         1 9L5       0.065600
     19 CAX          3.0270     0.1320     8.3660 c3         1 9L5       0.202000
     20 NAM          0.9400     3.0120     9.1870 nd         1 9L5      -0.507800
     21 NAN          2.9360    -3.4640     2.0170 nd         1 9L5      -0.532100
     22 NAO          2.7730     0.0820     6.9240 ns         1 9L5      -0.576900
     23 NAY          1.0820     2.4120    10.4450 na         1 9L5       0.069400
     24 NAZ          2.0180    -1.1950     0.6930 n          1 9L5      -0.329000
     25 OAF          3.3940    -2.0480     6.8220 o          1 9L5      -0.609100
     26 H1          -0.3610     1.0120     0.1350 hc         1 9L5       0.049367
     27 H2          -0.3610    -0.3890    -0.9440 hc         1 9L5       0.049367
     28 H3          -0.3610    -0.6230     0.8090 hc         1 9L5       0.049367
     29 H4           2.0610    -5.1370    -0.4760 hc         1 9L5       0.062700
     30 H5           3.3320    -5.5620     0.6780 hc         1 9L5       0.062700
     31 H6           3.7320    -4.6410    -0.7790 hc         1 9L5       0.062700
     32 H7           2.5900    -0.5720    10.9530 hc         1 9L5       0.054367
     33 H8           3.0790     0.7980    11.9590 hc         1 9L5       0.054367
     34 H9           1.4230     0.1820    12.0480 hc         1 9L5       0.054367
     35 H10          4.9500    -0.3660     9.1900 hc         1 9L5       0.043700
     36 H11          5.0210     0.5250     7.6630 hc         1 9L5       0.043700
     37 H12          4.5970     1.3670     9.1610 hc         1 9L5       0.043700
     38 H13          1.2920     3.0330    12.4320 h1         1 9L5       0.055367
     39 H14         -0.2120     2.1730    12.0720 h1         1 9L5       0.055367
     40 H15          0.0050     3.8420    11.5270 h1         1 9L5       0.055367
     41 H16          2.0930     0.9450     4.6750 ha         1 9L5       0.129000
     42 H17          1.6690     0.8880     2.2730 ha         1 9L5       0.143000
     43 H18          1.6750     2.4940     7.2530 h4         1 9L5       0.038100
     44 H19          3.3170    -3.1690     4.6010 ha         1 9L5       0.180000
     45 H20          1.8920    -0.0020    -1.0210 h1         1 9L5       0.070700
     46 H21          1.8920     0.8860     0.5090 h1         1 9L5       0.070700
     47 H22          2.7760    -0.8240     8.8100 h1         1 9L5       0.081700
     48 H23          2.4840     0.9080     6.4390 hn         1 9L5       0.312500
     49 OAG          2.0490    -2.3870    -1.1900 o          1 9L5      -0.619500
@<TRIPOS>BOND
     1    49    16 2
     2     1    10 1
     3     2    13 1
     4    16    13 1
     5    16    24 1
     6    10    24 1
     7    13    21 2
     8    24    18 1
     9    21    17 1
    10    18    17 ar
    11    18     7 ar
    12    17     9 ar
    13     7     6 ar
    14     9    12 ar
    15     6    12 ar
    16    12    11 1
    17    11    25 2
    18    11    22 1
    19    22    19 1
    20     4    19 1
    21    19    15 1
    22    15    14 2
    23    15     8 1
    24     3    14 1
    25    14    23 1
    26     8    20 2
    27    23    20 1
    28    23     5 1
    29     1    26 1
    30     1    27 1
    31     1    28 1
    32     2    29 1
    33     2    30 1
    34     2    31 1
    35     3    32 1
    36     3    33 1
    37     3    34 1
    38     4    35 1
    39     4    36 1
    40     4    37 1
    41     5    38 1
    42     5    39 1
    43     5    40 1
    44     6    41 1
    45     7    42 1
    46     8    43 1
    47     9    44 1
    48    10    45 1
    49    10    46 1
    50    19    47 1
    51    22    48 1
@<TRIPOS>SUBSTRUCTURE
     1 9L5         1 TEMP              0 ****  ****    0 ROOT
