@<TRIPOS>MOLECULE
9L7
   76    81     1     0     0
SMALL
bcc


@<TRIPOS>ATOM
      1 C4           0.0000     0.0000     0.0000 ca         1 9L7      -0.034000
      2 C5           1.3990     0.0000     0.0000 ca         1 9L7       0.062400
      3 C6           2.0900     0.0000     1.2250 ca         1 9L7      -0.242200
      4 C8           3.5290    -0.0010    -0.4550 cc         1 9L7       0.270400
      5 C10          4.5500     0.0000     1.8590 c3         1 9L7      -0.141000
      6 N12          6.5960    -1.3750     2.0730 ns         1 9L7      -0.183900
      7 C15          4.0120     0.1920     3.2780 c3         1 9L7      -0.073700
      8 C17          2.8560     1.7790     4.8250 c3         1 9L7      -0.020400
      9 C20          5.1580     0.0510     4.2820 c3         1 9L7      -0.052900
     10 C21          8.8160    -2.3220     1.6850 c3         1 9L7      -0.041900
     11 C22          9.5850    -3.6310     1.4940 c3         1 9L7      -0.017400
     12 C24          7.9260    -4.8170     2.9380 c3         1 9L7      -0.017400
     13 C26          7.1690    -0.0020    -2.6530 ca         1 9L7      -0.176600
     14 C28          7.0930     0.6660    -1.4280 ca         1 9L7      -0.060000
     15 C1          -0.6810     0.0010     1.1840 ca         1 9L7      -0.123000
     16 C2           0.0020     0.0010     2.3920 ca         1 9L7      -0.085000
     17 C3           1.3800     0.0000     2.4180 ca         1 9L7      -0.141000
     18 N9           2.3300    -0.0000    -0.9840 nd         1 9L7      -0.503100
     19 N7           3.4340    -0.0000     0.9100 na         1 9L7       0.354700
     20 C11          5.2830    -1.3140     1.7740 c          1 9L7       0.556100
     21 O13          4.6910    -2.3180     1.4360 o          1 9L7      -0.623100
     22 C14          7.3310    -2.6280     1.8900 c3         1 9L7       0.017700
     23 C23          9.4120    -4.5100     2.7340 c3         1 9L7      -0.029400
     24 C25          7.1580    -3.5070     3.1300 c3         1 9L7      -0.041900
     25 C16          3.3930     1.5850     3.4050 c3         1 9L7      -0.052900
     26 C18          4.0020     1.6370     5.8280 c3         1 9L7      -0.027400
     27 C19          4.6210     0.2430     5.7010 c3         1 9L7      -0.020400
     28 C36          4.7950    -0.0010    -1.2200 ca         1 9L7      -0.054900
     29 C32          5.9140     0.6670    -0.7170 ca         1 9L7      -0.110500
     30 O31          9.4890     0.1900    -2.8410 o          1 9L7      -0.564100
     31 C30          8.4220    -0.2550    -4.8700 ca         1 9L7      -0.180600
     32 C34          7.2630    -0.0120    -5.6120 ca         1 9L7      -0.060000
     33 C37          7.2590    -0.2380    -6.9720 ca         1 9L7      -0.115000
     34 C39          8.3980    -0.7050    -7.6030 ca         1 9L7      -0.072000
     35 C38          9.5500    -0.9480    -6.8740 ca         1 9L7      -0.115000
     36 C35          9.5680    -0.7250    -5.5140 ca         1 9L7      -0.060000
     37 C29          6.0490    -0.6700    -3.1560 ca         1 9L7      -0.060000
     38 C33          4.8720    -0.6690    -2.4440 ca         1 9L7      -0.110500
     39 H1          -0.5430     0.0000    -0.9380 ha         1 9L7       0.109000
     40 H2           5.2290     0.8090     1.6180 h1         1 9L7       0.060700
     41 H3           7.0770    -0.5530     2.3820 hn         1 9L7       0.177500
     42 H4           3.2580    -0.5560     3.4870 hc         1 9L7       0.077700
     43 H5           2.4200     2.7660     4.9130 hc         1 9L7       0.018450
     44 H6           2.1030     1.0270     5.0300 hc         1 9L7       0.018450
     45 H7           5.9110     0.8030     4.0780 hc         1 9L7       0.029700
     46 H8           5.5940    -0.9370     4.1930 hc         1 9L7       0.029700
     47 H9           8.9380    -1.7020     0.8050 hc         1 9L7       0.021950
     48 H10          9.2000    -1.8030     2.5550 hc         1 9L7       0.021950
     49 H11          9.1980    -4.1520     0.6260 hc         1 9L7       0.017700
     50 H12         10.6370    -3.4130     1.3520 hc         1 9L7       0.017700
     51 H13          7.5430    -5.3350     2.0670 hc         1 9L7       0.017700
     52 H14          7.8050    -5.4380     3.8170 hc         1 9L7       0.017700
     53 H15          7.9610     1.1840    -1.0380 ha         1 9L7       0.123500
     54 H16         -1.7640     0.0010     1.1800 ha         1 9L7       0.104000
     55 H17         -0.5530     0.0010     3.3230 ha         1 9L7       0.101000
     56 H18          1.9060    -0.0000     3.3650 ha         1 9L7       0.143000
     57 H19          6.9500    -3.1520     1.0220 h1         1 9L7       0.061700
     58 H20          9.9550    -5.4380     2.5960 hc         1 9L7       0.014700
     59 H21          9.7940    -3.9880     3.6020 hc         1 9L7       0.014700
     60 H22          6.1060    -3.7250     3.2720 hc         1 9L7       0.021950
     61 H23          7.5450    -2.9870     3.9980 hc         1 9L7       0.021950
     62 H24          4.1490     2.3350     3.2010 hc         1 9L7       0.029700
     63 H25          2.5800     1.6840     2.6960 hc         1 9L7       0.029700
     64 H26          3.6200     1.7710     6.8320 hc         1 9L7       0.016200
     65 H27          4.7570     2.3860     5.6200 hc         1 9L7       0.016200
     66 H28          3.8650    -0.5060     5.9040 hc         1 9L7       0.018450
     67 H29          5.4340     0.1440     6.4100 hc         1 9L7       0.018450
     68 H30          5.8550     1.1850     0.2330 ha         1 9L7       0.120500
     69 H31          6.3700     0.3530    -5.1190 ha         1 9L7       0.122000
     70 H32          6.3610    -0.0500    -7.5480 ha         1 9L7       0.107000
     71 H33          8.3890    -0.8810    -8.6710 ha         1 9L7       0.103000
     72 H34         10.4380    -1.3130    -7.3750 ha         1 9L7       0.107000
     73 H35         10.4700    -0.9160    -4.9450 ha         1 9L7       0.122000
     74 H36          6.1080    -1.1880    -4.1050 ha         1 9L7       0.123500
     75 H37          4.0030    -1.1870    -2.8340 ha         1 9L7       0.120500
     76 C27          8.4360    -0.0080    -3.4140 c          1 9L7       0.653300
@<TRIPOS>BOND
     1     1     2 ar  
     2     1    15 ar  
     3     1    39 1   
     4     2     3 ar  
     5     2    18 1   
     6     3    17 ar  
     7     3    19 1   
     8     4    18 2   
     9     4    19 1   
    10     4    28 1   
    11     5     7 1   
    12     5    19 1   
    13     5    20 1   
    14     5    40 1   
    15     6    20 1   
    16     6    22 1   
    17     6    41 1   
    18     7     9 1   
    19     7    25 1   
    20     7    42 1   
    21     8    25 1   
    22     8    26 1   
    23     8    43 1   
    24     8    44 1   
    25     9    27 1   
    26     9    45 1   
    27     9    46 1   
    28    10    11 1   
    29    10    22 1   
    30    10    47 1   
    31    10    48 1   
    32    11    23 1   
    33    11    49 1   
    34    11    50 1   
    35    12    23 1   
    36    12    24 1   
    37    12    51 1   
    38    12    52 1   
    39    13    14 ar  
    40    13    37 ar  
    41    13    76 1   
    42    14    29 ar  
    43    14    53 1   
    44    15    16 ar  
    45    15    54 1   
    46    16    17 ar  
    47    16    55 1   
    48    17    56 1   
    49    20    21 2   
    50    22    24 1   
    51    22    57 1   
    52    23    58 1   
    53    23    59 1   
    54    24    60 1   
    55    24    61 1   
    56    25    62 1   
    57    25    63 1   
    58    26    27 1   
    59    26    64 1   
    60    26    65 1   
    61    27    66 1   
    62    27    67 1   
    63    28    29 ar  
    64    28    38 ar  
    65    29    68 1   
    66    30    76 2   
    67    31    32 ar  
    68    31    36 ar  
    69    31    76 1   
    70    32    33 ar  
    71    32    69 1   
    72    33    34 ar  
    73    33    70 1   
    74    34    35 ar  
    75    34    71 1   
    76    35    36 ar  
    77    35    72 1   
    78    36    73 1   
    79    37    38 ar  
    80    37    74 1   
    81    38    75 1   
@<TRIPOS>SUBSTRUCTURE
     1 9L7         1 TEMP              0 ****  ****    0 ROOT
