@<TRIPOS>MOLECULE
9L8
   47    50     1     0     0
SMALL
bcc


@<TRIPOS>ATOM
      1 N2'          0.0000     0.0000     0.0000 nz         1 9L8       0.089400
      2 C2'          1.4700     0.0000     0.0000 c3         1 9L8      -0.138500
      3 C3'          1.9810     0.0000     1.4440 c3         1 9L8       0.162100
      4 O3'          1.5690    -1.2030     2.0960 oh         1 9L8      -0.583800
      5 C4'          3.5100     0.0790     1.4310 c3         1 9L8       0.148100
      6 O4'          3.9950     0.1530     2.7740 oh         1 9L8      -0.565800
      7 C5'          3.9430     1.3300     0.6620 c3         1 9L8       0.148100
      8 C6'          5.4700     1.3850     0.5940 c3         1 9L8       0.233400
      9 O6'          5.8760     2.6080    -0.0210 oh         1 9L8      -0.583800
     10 O5'          3.4080     1.2810    -0.6620 os         1 9L8      -0.328600
     11 C1'          1.9810     1.2540    -0.7140 c3         1 9L8       0.195800
     12 C1           1.5300     1.2320    -2.1520 cc         1 9L8       0.147800
     13 N5           1.7480     0.2670    -3.0070 nd         1 9L8      -0.650000
     14 C4           1.2070     0.5830    -4.1930 cd         1 9L8       0.667500
     15 C6           1.2450    -0.2610    -5.4120 ca         1 9L8      -0.169500
     16 C7           0.6450     0.1860    -6.5740 ca         1 9L8      -0.026000
     17 C8           0.6840    -0.6170    -7.7250 ca         1 9L8      -0.052000
     18 C9           1.3400    -1.8740    -7.6760 ca         1 9L8      -0.016000
     19 C15          1.3770    -2.6740    -8.8310 ca         1 9L8      -0.095000
     20 C14          0.7860    -2.2350    -9.9760 ca         1 9L8      -0.075000
     21 C13          0.1420    -1.0000   -10.0230 ca         1 9L8      -0.090000
     22 C12          0.0850    -0.1970    -8.9250 ca         1 9L8      -0.080000
     23 C10          1.9410    -2.3000    -6.4780 ca         1 9L8      -0.083000
     24 C11          1.8970    -1.5060    -5.3780 ca         1 9L8      -0.084000
     25 N3           0.6360     1.7640    -4.0960 nc         1 9L8      -0.646800
     26 N2           0.8320     2.1980    -2.7740 na         1 9L8       0.326600
     27 H1          -0.3340    -0.8160    -0.4750 hn         1 9L8       0.224133
     28 H2          -0.3340    -0.0030     0.9440 hn         1 9L8       0.224133
     29 H4           1.8370    -0.8810    -0.5120 hx         1 9L8       0.135700
     30 H5           1.5800     0.8580     1.9680 h1         1 9L8       0.025700
     31 H6           1.2080    -0.9940     2.9420 ho         1 9L8       0.426000
     32 H7           3.9120    -0.8000     0.9440 h1         1 9L8       0.041700
     33 H8           4.4580    -0.6410     2.9850 ho         1 9L8       0.418000
     34 H9           3.5680     2.2110     1.1680 h1         1 9L8       0.035700
     35 H10          5.8360     0.5480     0.0110 h1         1 9L8       0.008200
     36 H11          5.8780     1.3320     1.5960 h1         1 9L8       0.008200
     37 H12          6.8180     2.6660    -0.0160 ho         1 9L8       0.409000
     38 H13          1.5860     2.1340    -0.2210 h1         1 9L8       0.014700
     39 H15          0.2670     1.1990    -6.6330 ha         1 9L8       0.123000
     40 H16          1.8740    -3.6360    -8.8100 ha         1 9L8       0.112000
     41 H17          0.8170    -2.8550   -10.8630 ha         1 9L8       0.109000
     42 H18         -0.3200    -0.6740   -10.9470 ha         1 9L8       0.109000
     43 H19         -0.4190     0.7600    -8.9760 ha         1 9L8       0.111000
     44 H20          2.4470    -3.2560    -6.4360 ha         1 9L8       0.113000
     45 H21          2.3710    -1.8360    -4.4610 ha         1 9L8       0.112000
     46 H3           0.5180     3.0610    -2.3750 hn         1 9L8       0.164700
     47 H2'3        -0.3340     0.8320    -0.4440 hn         1 9L8       0.224133
@<TRIPOS>BOND
     1     1     2 1   
     2     1    27 1   
     3     1    28 1   
     4     1    47 1   
     5     2     3 1   
     6     2    11 1   
     7     2    29 1   
     8     3     4 1   
     9     3     5 1   
    10     3    30 1   
    11     4    31 1   
    12     5     6 1   
    13     5     7 1   
    14     5    32 1   
    15     6    33 1   
    16     7     8 1   
    17     7    10 1   
    18     7    34 1   
    19     8     9 1   
    20     8    35 1   
    21     8    36 1   
    22     9    37 1   
    23    10    11 1   
    24    11    12 1   
    25    11    38 1   
    26    12    13 2   
    27    12    26 1   
    28    13    14 1   
    29    14    15 1   
    30    14    25 2   
    31    15    16 ar  
    32    15    24 ar  
    33    16    17 ar  
    34    16    39 1   
    35    17    18 ar  
    36    17    22 ar  
    37    18    19 ar  
    38    18    23 ar  
    39    19    20 ar  
    40    19    40 1   
    41    20    21 ar  
    42    20    41 1   
    43    21    22 ar  
    44    21    42 1   
    45    22    43 1   
    46    23    24 ar  
    47    23    44 1   
    48    24    45 1   
    49    25    26 1   
    50    26    46 1   
@<TRIPOS>SUBSTRUCTURE
     1 9L8         1 TEMP              0 ****  ****    0 ROOT
