@<TRIPOS>MOLECULE
9L9
   53    54     1     0     0
SMALL
bcc


@<TRIPOS>ATOM
      1 N2A     -1321.6680  313.3230   98.1110 n4        1 9L9      0.024000
      2 N1      -1323.6230  313.3640   96.7060 n2        1 9L9     -0.042000
      3 C2      -1323.1390  313.3530   97.9510 c2        1 9L9     -0.181000
      4 N3      -1323.9150  313.4900   99.1350 n         1 9L9     -0.314000
      5 C4      -1325.3040  313.5370   99.0240 c2        1 9L9      0.303000
      6 O4A     -1325.9910  313.5460  100.0560 o         1 9L9     -0.295000
      7 C5      -1325.9330  313.5960   97.6450 c2        1 9L9      0.054000
      8 C6      -1324.9600  313.4550   96.5460 c2        1 9L9     -0.333000
      9 N7      -1325.5040  313.4310   95.1880 n4        1 9L9      0.052000
     10 O8A     -1139.4050   68.2130    0.3160 o         1 9L9     -0.199000
     11 N9       1956.3090    0.9070    0.1590 n4        1 9L9      0.155000
     12 C1B      1955.2770    0.3650    0.8250 c3        1 9L9      0.646000
     13 C2B       412.2290 -908.1550 -792.0030 c2        1 9L9     -0.112000
     14 C3B       412.4160 -907.2400 -792.8990 c1        1 9L9     -0.045000
     15 C4B       412.6110 -906.3750 -793.8700 c2        1 9L9     -0.224000
     16 C5B      1955.3770    0.5940    0.1130 c2        1 9L9     -0.281000
     17 C6B      1955.3650    0.0220    0.0540 c2        1 9L9     -0.281000
     18 C7B       412.7960 -904.9500 -793.6570 c2        1 9L9      0.358000
     19 O7B       413.1250 -904.1110 -794.6690 os        1 9L9     -0.215000
     20 CAW     -1138.7200   67.6490    0.0800 c1        1 9L9      0.199000
     21 N         412.6320 -904.3060 -792.5050 n3        1 9L9     -0.248000
     22 CA        415.4300 -902.7690 -795.6250 cx        1 9L9     -0.060000
     23 C         415.0150 -902.2380 -794.3300 cu        1 9L9      0.309000
     24 O         415.1270 -901.3330 -795.3390 os        1 9L9     -0.207000
     25 CB        414.4360 -903.4520 -796.5150 c3        1 9L9     -0.176000
     26 CG        413.7820 -904.6520 -795.8510 c3        1 9L9     -0.008000
     27 CD        581.6060 -266.0170 -700.9860 c1        1 9L9      0.411000
     28 OE1       581.3700 -267.1820 -701.0330 o         1 9L9     -0.206000
     29 OE2       581.8410 -264.8520 -700.9400 o         1 9L9     -0.206000
     30 OXT       414.6440 -902.2100 -793.1790 o         1 9L9     -0.266000
     31 H2A1    -1321.2180  313.2570   97.1910 hn        1 9L9      0.258667
     32 H2A2    -1321.3550  314.1810   98.5810 hn        1 9L9      0.258667
     33 H71N    -1324.7680  313.3210   94.4860 hn        1 9L9      0.250667
     34 H72N    -1326.1670  312.6500   95.1200 hn        1 9L9      0.250667
     35 H9       1957.2530    0.0000    0.4950 DU        1 9L9      0.256000
     36 H2B       413.0660 -908.7100 -791.5370 ha        1 9L9      0.196000
     37 H6B      1954.2510    0.2260    0.3900 DU        1 9L9      0.114000
     38 H3B       411.2210 -908.4440 -791.6510 ha        1 9L9      0.196000
     39 H5B       412.6220 -906.7110 -794.9260 ha        1 9L9      0.196000
     40 H5A      1955.3860    0.1040    0.0570 DU        1 9L9      0.277000
     41 HN3     -1323.5190  313.2800  100.0250 hn        1 9L9      0.251000
     42 H         412.3160 -904.7900 -791.6910 hn        1 9L9      0.293500
     43 HA        412.8290 -903.3200 -792.4340 hn        1 9L9      0.293500
     44 HB1C      416.5000 -902.9420 -795.8560 h1        1 9L9      0.178000
     45 HB2C      413.6460 -902.7130 -796.8290 hc        1 9L9      0.149000
     46 HG1C      414.9470 -903.8200 -797.4470 hc        1 9L9      0.149000
     47 HG2C      412.9900 -905.0970 -796.5080 h1        1 9L9      0.122000
     48 N5A     -1327.1930  313.7340   97.4300 n2        1 9L9     -0.251000
     49 H2A3    -1321.4080  312.5070   98.6740 hn        1 9L9      0.258667
     50 H73     -1326.0090  314.3100   95.0270 hn        1 9L9      0.250667
     51 H92      1956.1940    0.4390    0.2760 DU        1 9L9      0.114000
     52 H2        414.5320 -905.4240 -795.5400 h1        1 9L9      0.122000
     53 H5A2    -1327.7800  313.8230   98.2340 hn        1 9L9      0.205000
@<TRIPOS>BOND
     1    1    3 1   
     2    1   31 1   
     3    1   32 1   
     4    1   49 1   
     5    2    3 1   
     6    2    8 1   
     7    3    4 1   
     8    4    5 1   
     9    4   41 1   
    10    5    6 1   
    11    5    7 1   
    12    7    8 1   
    13    7   48 1   
    14    8    9 1   
    15    9   33 1   
    16    9   34 1   
    17    9   50 1   
    18   10   20 1   
    19   11   12 1   
    20   11   16 1   
    21   11   17 1   
    22   11   40 1   
    23   12   37 1   
    24   12   40 1   
    25   12   51 1   
    26   13   14 1   
    27   13   36 1   
    28   13   38 1   
    29   14   15 1   
    30   15   18 1   
    31   15   39 1   
    32   16   37 1   
    33   16   51 1   
    34   17   37 1   
    35   17   51 1   
    36   18   19 1   
    37   18   21 1   
    38   19   26 1   
    39   21   42 1   
    40   21   43 1   
    41   22   23 1   
    42   22   24 1   
    43   22   25 1   
    44   22   44 1   
    45   23   24 1   
    46   23   30 1   
    47   25   26 1   
    48   25   45 1   
    49   25   46 1   
    50   26   47 1   
    51   26   52 1   
    52   27   28 1   
    53   27   29 1   
    54   48   53 1   
@<TRIPOS>SUBSTRUCTURE
     1 9L9         1 TEMP              0 ****  ****    0 ROOT
