@<TRIPOS>MOLECULE
molecule
   50    51     1     0     0
SMALL
bcc


@<TRIPOS>ATOM
      1 N2A          0.0000     0.0000     0.0000 nz         1 9L9      -0.668600
      2 N1           2.0140     0.0000     1.1480 nc         1 9L9      -0.623300
      3 C2           1.3720     0.0000     0.0000 cd         1 9L9       0.239800
      4 N3           2.0370    -0.0030    -1.1870 ns         1 9L9      -0.492400
      5 C4           3.3860    -0.0040    -1.2090 c          1 9L9       0.759700
      6 O4A          3.9910    -0.0050    -2.2700 o          1 9L9      -0.602500
      7 C5           4.0810    -0.0020     0.0090 cd         1 9L9      -0.248600
      8 C6           3.3520     0.0000     1.1930 cc         1 9L9       0.070600
      9 N7           4.0060     0.0020     2.4130 nz         1 9L9      -0.615400
     10 O8A          5.5800    -1.8510    -1.1950 o          1 9L9      -0.591100
     11 N9           7.5170    -1.0550    -0.4560 ns         1 9L9      -0.494100
     12 C1B          8.2140    -2.1450    -0.9790 ca         1 9L9       0.091600
     13 C2B          9.4890    -1.9640    -1.5050 ca         1 9L9      -0.159000
     14 C3B         10.1800    -3.0360    -2.0210 ca         1 9L9      -0.060500
     15 C4B          9.5990    -4.3080    -2.0170 ca         1 9L9      -0.160600
     16 C5B          8.3180    -4.4850    -1.4890 ca         1 9L9      -0.060500
     17 C6B          7.6350    -3.4100    -0.9680 ca         1 9L9      -0.159000
     18 C7B         10.3370    -5.4600    -2.5710 c          1 9L9       0.674700
     19 O7B         11.4510    -5.3040    -3.0310 o          1 9L9      -0.588100
     20 CAW          6.1750    -1.0010    -0.5620 c          1 9L9       0.773100
     21 N            9.7750    -6.6840    -2.5660 ns         1 9L9      -0.538900
     22 CA          10.5070    -7.8290    -3.1160 c3         1 9L9       0.121700
     23 C           10.2910    -7.8940    -4.6060 c          1 9L9       0.876600
     24 O            9.5980    -7.0690    -5.1530 o          1 9L9      -0.624800
     25 CB           9.9970    -9.1190    -2.4700 c3         1 9L9      -0.144400
     26 CG          10.3280    -9.1060    -0.9770 c3         1 9L9      -0.131400
     27 CD           9.8250   -10.3770    -0.3400 c          1 9L9       0.884600
     28 OE1         10.0050   -10.5860     0.9730 o          1 9L9      -0.685800
     29 OE2          9.2610   -11.2070    -1.0130 o          1 9L9      -0.685800
     30 OXT         10.8710    -8.8680    -5.3260 o          1 9L9      -0.624800
     31 H2A1        -0.3340     0.0120     0.9440 hn         1 9L9       0.435133
     32 H2A2        -0.3340    -0.8230    -0.4610 hn         1 9L9       0.435133
     33 H71N         4.5230     0.8530     2.5130 hn         1 9L9       0.441467
     34 H72N         3.3350    -0.0690     3.1510 hn         1 9L9       0.441467
     35 H9           8.0110    -0.3290     0.0240 hn         1 9L9       0.311500
     36 H2B          9.9390    -0.9780    -1.5070 ha         1 9L9       0.146000
     37 H6B          6.6420    -3.5470    -0.5580 ha         1 9L9       0.146000
     38 H3B         11.1730    -2.8950    -2.4300 ha         1 9L9       0.149500
     39 H5B          7.8650    -5.4690    -1.4820 ha         1 9L9       0.149500
     40 H5A          5.9850     0.7580     0.4570 hn         1 9L9       0.289500
     41 HN3          1.5250    -0.0040    -2.0470 hn         1 9L9       0.320500
     42 H            8.8430    -6.8060    -2.2210 hn         1 9L9       0.338500
     43 HA          11.5640    -7.7150    -2.9080 h1         1 9L9       0.111700
     44 HB1C        11.0600    -8.9130    -2.5120 hc         1 9L9       0.121200
     45 HB2C         9.9180   -10.0510    -3.0160 hc         1 9L9       0.121200
     46 HG1C         9.8510    -8.2540    -0.5080 hc         1 9L9       0.059200
     47 HG2C        11.4010    -9.0370    -0.8450 hc         1 9L9       0.059200
     48 N5A          5.4910    -0.0030     0.0330 ns         1 9L9      -0.487100
     49 H2A3        -0.3340     0.8100    -0.4830 hn         1 9L9       0.435133
     50 H73          4.6060    -0.7970     2.4710 hn         1 9L9       0.441467
@<TRIPOS>BOND
     1     1     3 1
     2     2     3 2
     3     2     8 1
     4     3     4 1
     5     4     5 1
     6     5     6 2
     7     5     7 1
     8    48     7 1
     9    48    20 1
    10     7     8 2
    11     8     9 1
    12    10    20 2
    13    11    12 1
    14    11    20 1
    15    12    13 ar
    16    12    17 ar
    17    13    14 ar
    18    14    15 ar
    19    15    16 ar
    20    15    18 1
    21    16    17 ar
    22    18    19 2
    23    18    21 1
    24    21    22 1
    25    25    26 1
    26    25    22 1
    27    26    27 1
    28    27    28 1
    29    27    29 1
    30    23    30 1
    31    23    24 1
    32    23    22 1
    33     1    31 1
    34     1    32 1
    35     9    33 1
    36     9    34 1
    37    11    35 1
    38    13    36 1
    39    17    37 1
    40    14    38 1
    41    16    39 1
    42    21    42 1
    43    22    43 1
    44    25    44 1
    45    25    45 1
    46    26    46 1
    47    26    47 1
    48    48    40 1
    49     4    41 1
    50    49     1 1
    51    50     9 1
@<TRIPOS>SUBSTRUCTURE
     1 9L9         1 TEMP              0 ****  ****    0 ROOT
