@<TRIPOS>MOLECULE
molecule
   60    64     1     0     0
SMALL
bcc


@<TRIPOS>ATOM
      1 N1           0.0000     0.0000     0.0000 na         1 9LA      -0.133300
      2 N3           0.6430     0.0000     2.0960 nc         1 9LA      -0.596100
      3 C4           1.3820     0.0000     0.0000 ca         1 9LA      -0.077200
      4 C5           1.7750     0.0000     1.3500 ca         1 9LA       0.096400
      5 C6           2.3430     0.0010    -1.0010 ca         1 9LA      -0.157000
      6 C7          -0.8700    -0.0010    -1.1790 c3         1 9LA       0.049000
      7 C8           3.1360     0.0050     1.6720 ca         1 9LA      -0.097000
      8 C10         -1.8110    -0.0080     1.7630 ca         1 9LA      -0.098900
      9 C13         -0.0600    -0.4130    -2.4100 c3         1 9LA       0.122400
     10 C17         -1.4420     1.4010    -1.3910 c3         1 9LA      -0.079700
     11 C20         -0.6150    -1.5440    -7.0130 ca         1 9LA      -0.066000
     12 C21          1.5700    -1.5370    -5.9730 ca         1 9LA      -0.066000
     13 C24         -0.3790    -0.9700    -4.6970 ca         1 9LA       0.088100
     14 C26         -4.4460    -0.0130     2.6170 ca         1 9LA       0.037400
     15 C28          0.9950    -1.1610    -4.7790 ca         1 9LA      -0.213000
     16 O16         -0.9420    -0.6010    -3.5190 os         1 9LA      -0.342900
     17 C27         -1.1800    -1.1680    -5.8160 ca         1 9LA      -0.213000
     18 C14          0.7680    -1.7320    -7.1020 ca         1 9LA      -0.125600
     19 C12          1.3800    -2.1340    -8.3810 c          1 9LA       0.883200
     20 O15          2.5810    -2.2980    -8.4560 o          1 9LA      -0.836300
     21 O25          0.6040    -2.3220    -9.4680 o          1 9LA      -0.836300
     22 C32         -0.3070     2.3690    -1.7340 c3         1 9LA      -0.082900
     23 C34         -0.8790     3.7720    -1.9460 c3         1 9LA      -0.075900
     24 C36         -1.8880     3.7420    -3.0960 c3         1 9LA      -0.081400
     25 C35         -3.0230     2.7750    -2.7540 c3         1 9LA      -0.075900
     26 C33         -2.4510     1.3720    -2.5420 c3         1 9LA      -0.082900
     27 C9           3.6830     0.0020    -0.6690 ca         1 9LA       0.116900
     28 C11          4.0770     0.0050     0.6660 ca         1 9LA       0.079900
     29 C2          -0.4040    -0.0070     1.3090 cd         1 9LA       0.481400
     30 C18         -2.7780    -0.7160     1.0490 ca         1 9LA      -0.092500
     31 C30         -4.0890    -0.7140     1.4780 ca         1 9LA      -0.126500
     32 C29         -3.4900     0.6870     3.3340 ca         1 9LA      -0.126500
     33 C19         -2.1760     0.6930     2.9140 ca         1 9LA      -0.092500
     34 Cl31        -6.0970    -0.0140     3.1510 cl         1 9LA      -0.111400
     35 F23          5.3920     0.0100     0.9770 f          1 9LA      -0.132900
     36 F22          4.6170     0.0030    -1.6450 f          1 9LA      -0.119900
     37 H1           2.0430    -0.0010    -2.0420 ha         1 9LA       0.171000
     38 H2          -1.6810    -0.7030    -1.0290 h1         1 9LA       0.083700
     39 H3           3.4500     0.0080     2.7090 ha         1 9LA       0.158000
     40 H4           0.6580     0.3630    -2.6460 h1         1 9LA       0.052200
     41 H5           0.4640    -1.3390    -2.2040 h1         1 9LA       0.052200
     42 H6          -1.9370     1.7350    -0.4880 hc         1 9LA       0.054700
     43 H9           1.6160    -1.0100    -3.9040 ha         1 9LA       0.111500
     44 H10         -2.2510    -1.0210    -5.7470 ha         1 9LA       0.111500
     45 H12          0.1850     2.0400    -2.6420 hc         1 9LA       0.057700
     46 H13          0.4060     2.3900    -0.9190 hc         1 9LA       0.057700
     47 H14         -0.0750     4.4550    -2.1900 hc         1 9LA       0.037950
     48 H15         -1.3750     4.0990    -1.0400 hc         1 9LA       0.037950
     49 H16         -2.2950     4.7350    -3.2440 hc         1 9LA       0.044200
     50 H17         -1.3930     3.4100    -4.0000 hc         1 9LA       0.044200
     51 H18         -3.5150     3.1040    -1.8470 hc         1 9LA       0.037950
     52 H19         -3.7350     2.7540    -3.5700 hc         1 9LA       0.037950
     53 H20         -1.9550     1.0450    -3.4470 hc         1 9LA       0.057700
     54 H21         -3.2560     0.6890    -2.2970 hc         1 9LA       0.057700
     55 H22         -2.5000    -1.2660     0.1570 ha         1 9LA       0.155000
     56 H23         -4.8400    -1.2620     0.9220 ha         1 9LA       0.148000
     57 H24         -3.7750     1.2330     4.2260 ha         1 9LA       0.148000
     58 H25         -1.4280     1.2410     3.4760 ha         1 9LA       0.155000
     59 H7          -1.2400    -1.6960    -7.8840 ha         1 9LA       0.157000
     60 H8           2.6410    -1.6830    -6.0370 ha         1 9LA       0.157000
@<TRIPOS>BOND
     1    20    19 1
     2    12    15 ar
     3    12    18 ar
     4    19    18 1
     5    19    21 1
     6    15    13 ar
     7    18    11 ar
     8    31    30 ar
     9    31    14 ar
    10    30     8 ar
    11     2     4 1
    12     2    29 2
    13    34    14 1
    14     7     4 ar
    15     7    28 ar
    16    14    32 ar
    17    13    16 1
    18    13    17 ar
    19    35    28 1
    20     4     3 ar
    21     8    29 1
    22     8    33 ar
    23    11    17 ar
    24    29     1 1
    25    28    27 ar
    26    16     9 1
    27    32    33 ar
    28     3     1 1
    29     3     5 ar
    30     1     6 1
    31    27     5 ar
    32    27    36 1
    33     9     6 1
    34     6    10 1
    35    10    26 1
    36    10    22 1
    37    26    25 1
    38    22    23 1
    39    25    24 1
    40    23    24 1
    41     5    37 1
    42     6    38 1
    43     7    39 1
    44     9    40 1
    45     9    41 1
    46    10    42 1
    47    11    59 1
    48    12    60 1
    49    15    43 1
    50    17    44 1
    51    22    45 1
    52    22    46 1
    53    23    47 1
    54    23    48 1
    55    24    49 1
    56    24    50 1
    57    25    51 1
    58    25    52 1
    59    26    53 1
    60    26    54 1
    61    30    55 1
    62    31    56 1
    63    32    57 1
    64    33    58 1
@<TRIPOS>SUBSTRUCTURE
     1 9LA         1 TEMP              0 ****  ****    0 ROOT
