@<TRIPOS>MOLECULE
9LB
   41    43     1     0     0
SMALL
bcc


@<TRIPOS>ATOM
      1 O6'          0.0000     0.0000     0.0000 oh         1 9LB      -0.584800
      2 C6'          1.4300     0.0000     0.0000 c3         1 9LB       0.232400
      3 C5'          1.9390     0.0000     1.4420 c3         1 9LB       0.149100
      4 C4'          3.4650     0.1230     1.4450 c3         1 9LB       0.148100
      5 O4'          3.8440     1.3700     0.8560 oh         1 9LB      -0.566800
      6 C3'          3.9720     0.0620     2.8890 c3         1 9LB       0.158100
      7 O3'          5.4010     0.1040     2.8950 oh         1 9LB      -0.581800
      8 O5'          1.5610    -1.2200     2.0820 os         1 9LB      -0.330600
      9 C1'          1.9670    -1.3130     3.4490 c3         1 9LB       0.212800
     10 C2'          3.4940    -1.2430     3.5320 c3         1 9LB      -0.137500
     11 N2'          3.9120    -1.2790     4.9400 nz         1 9LB       0.086400
     12 C1           1.4930    -2.6220     4.0260 cc         1 9LB       0.030800
     13 N2           1.8850    -3.8140     3.6640 nd         1 9LB      -0.269000
     14 N3           1.2800    -4.7090     4.3620 nd         1 9LB      -0.315000
     15 C4           0.4620    -4.1290     5.2120 cc         1 9LB       0.303000
     16 N5           0.5810    -2.7790     5.0240 na         1 9LB       0.108300
     17 C6          -0.4140    -4.8080     6.1910 ca         1 9LB      -0.163500
     18 C7          -0.4260    -6.2000     6.2740 ca         1 9LB      -0.071000
     19 C8          -1.2460    -6.8280     7.1900 ca         1 9LB      -0.090500
     20 C9          -2.0560    -6.0780     8.0240 ca         1 9LB      -0.062000
     21 C10         -2.0490    -4.6970     7.9470 ca         1 9LB      -0.090500
     22 C11         -1.2300    -4.0580     7.0380 ca         1 9LB      -0.071000
     23 H1          -0.3140     0.1010    -0.8830 ho         1 9LB       0.409000
     24 H2           1.7910    -0.8850    -0.5110 h1         1 9LB       0.009200
     25 H3           1.7910     0.8850    -0.5110 h1         1 9LB       0.009200
     26 H4           1.5100     0.8360     1.9810 h1         1 9LB       0.033700
     27 H5           3.8930    -0.6950     0.8780 h1         1 9LB       0.042700
     28 H6           4.5220     1.2240     0.2180 ho         1 9LB       0.418000
     29 H7           3.5780     0.9040     3.4450 h1         1 9LB       0.024700
     30 H8           5.6890     0.9450     3.2100 ho         1 9LB       0.425000
     31 H9           1.5380    -0.4900     4.0080 h1         1 9LB       0.011700
     32 H10          3.9230    -2.0840     3.0010 hx         1 9LB       0.136700
     33 H11          4.8280    -0.8860     5.0260 hn         1 9LB       0.224467
     34 H12          3.9240    -2.2270     5.2600 hn         1 9LB       0.224467
     35 H15          0.2090    -6.7880     5.6220 ha         1 9LB       0.108000
     36 H16         -1.2550    -7.9090     7.2560 ha         1 9LB       0.116500
     37 H17         -2.6990    -6.5750     8.7400 ha         1 9LB       0.115000
     38 H18         -2.6850    -4.1160     8.6040 ha         1 9LB       0.116500
     39 H19         -1.2260    -2.9770     6.9790 ha         1 9LB       0.108000
     40 H13          0.0930    -2.0570     5.5150 hn         1 9LB       0.146700
     41 H2'3         3.2840    -0.7250     5.4880 hn         1 9LB       0.224467
@<TRIPOS>BOND
     1     1     2 1   
     2     1    23 1   
     3     2     3 1   
     4     2    24 1   
     5     2    25 1   
     6     3     4 1   
     7     3     8 1   
     8     3    26 1   
     9     4     5 1   
    10     4     6 1   
    11     4    27 1   
    12     5    28 1   
    13     6     7 1   
    14     6    10 1   
    15     6    29 1   
    16     7    30 1   
    17     8     9 1   
    18     9    10 1   
    19     9    12 1   
    20     9    31 1   
    21    10    11 1   
    22    10    32 1   
    23    11    33 1   
    24    11    34 1   
    25    11    41 1   
    26    12    13 2   
    27    12    16 1   
    28    13    14 1   
    29    14    15 2   
    30    15    16 1   
    31    15    17 1   
    32    16    40 1   
    33    17    18 ar  
    34    17    22 ar  
    35    18    19 ar  
    36    18    35 1   
    37    19    20 ar  
    38    19    36 1   
    39    20    21 ar  
    40    20    37 1   
    41    21    22 ar  
    42    21    38 1   
    43    22    39 1   
@<TRIPOS>SUBSTRUCTURE
     1 9LB         1 TEMP              0 ****  ****    0 ROOT
