@<TRIPOS>MOLECULE
molecule
   41    43     1     0     0
SMALL
bcc


@<TRIPOS>ATOM
      1 O6'          0.0000     0.0000     0.0000 oh         1 9LB      -0.598800
      2 C6'          1.4300     0.0000     0.0000 c3         1 9LB       0.158400
      3 C5'          1.9390     0.0000     1.4420 c3         1 9LB       0.127100
      4 C4'          3.4650     0.1230     1.4450 c3         1 9LB       0.112100
      5 O4'          3.8440     1.3700     0.8560 oh         1 9LB      -0.583800
      6 C3'          3.9720     0.0620     2.8890 c3         1 9LB       0.102100
      7 O3'          5.4010     0.1040     2.8950 oh         1 9LB      -0.601800
      8 O5'          1.5610    -1.2200     2.0820 os         1 9LB      -0.340600
      9 C1'          1.9670    -1.3130     3.4490 c3         1 9LB       0.142800
     10 C2'          3.4940    -1.2430     3.5320 c3         1 9LB       0.065500
     11 N2'          3.9120    -1.2790     4.9400 nz         1 9LB      -0.802600
     12 C1           1.4930    -2.6220     4.0260 cc         1 9LB       0.264800
     13 N2           1.8850    -3.8140     3.6640 nd         1 9LB      -0.308000
     14 N3           1.2800    -4.7090     4.3620 nd         1 9LB      -0.339000
     15 C4           0.4620    -4.1290     5.2120 cc         1 9LB       0.486000
     16 N5           0.5810    -2.7790     5.0240 na         1 9LB      -0.432700
     17 C6          -0.4140    -4.8080     6.1910 ca         1 9LB      -0.160500
     18 C7          -0.4260    -6.2000     6.2740 ca         1 9LB      -0.093000
     19 C8          -1.2460    -6.8280     7.1900 ca         1 9LB      -0.122000
     20 C9          -2.0560    -6.0780     8.0240 ca         1 9LB      -0.091000
     21 C10         -2.0490    -4.6970     7.9470 ca         1 9LB      -0.122000
     22 C11         -1.2300    -4.0580     7.0380 ca         1 9LB      -0.093000
     23 H1          -0.3140     0.1010    -0.8830 ho         1 9LB       0.424000
     24 H2           1.7910    -0.8850    -0.5110 h1         1 9LB       0.050700
     25 H3           1.7910     0.8850    -0.5110 h1         1 9LB       0.050700
     26 H4           1.5100     0.8360     1.9810 h1         1 9LB       0.070700
     27 H5           3.8930    -0.6950     0.8780 h1         1 9LB       0.079700
     28 H6           4.5220     1.2240     0.2180 ho         1 9LB       0.433000
     29 H7           3.5780     0.9040     3.4450 h1         1 9LB       0.060700
     30 H8           5.6890     0.9450     3.2100 ho         1 9LB       0.437000
     31 H9           1.5380    -0.4900     4.0080 h1         1 9LB       0.049700
     32 H10          3.9230    -2.0840     3.0010 hx         1 9LB       0.160700
     33 H11          4.8280    -0.8860     5.0260 hn         1 9LB       0.458133
     34 H12          3.9240    -2.2270     5.2600 hn         1 9LB       0.458133
     35 H15          0.2090    -6.7880     5.6220 ha         1 9LB       0.137500
     36 H16         -1.2550    -7.9090     7.2560 ha         1 9LB       0.149000
     37 H17         -2.6990    -6.5750     8.7400 ha         1 9LB       0.148000
     38 H18         -2.6850    -4.1160     8.6040 ha         1 9LB       0.149000
     39 H19         -1.2260    -2.9770     6.9790 ha         1 9LB       0.137500
     40 H13          0.0930    -2.0570     5.5150 hn         1 9LB       0.317700
     41 H2'3         3.2840    -0.7250     5.4880 hn         1 9LB       0.458133
@<TRIPOS>BOND
     1     7     6 1
     2     5     4 1
     3     6     4 1
     4     6    10 1
     5     4     3 1
     6    11    10 1
     7    10     9 1
     8     1     2 1
     9     3     2 1
    10     3     8 1
    11     9     8 1
    12     9    12 1
    13    13    12 2
    14    13    14 1
    15    12    16 1
    16    14    15 2
    17    16    15 1
    18    15    17 1
    19    17    18 ar
    20    17    22 ar
    21    18    19 ar
    22    22    21 ar
    23    19    20 ar
    24    21    20 ar
    25     1    23 1
    26     2    24 1
    27     2    25 1
    28     3    26 1
    29     4    27 1
    30     5    28 1
    31     6    29 1
    32     7    30 1
    33     9    31 1
    34    10    32 1
    35    11    33 1
    36    11    34 1
    37    18    35 1
    38    19    36 1
    39    20    37 1
    40    21    38 1
    41    22    39 1
    42    16    40 1
    43    41    11 1
@<TRIPOS>SUBSTRUCTURE
     1 9LB         1 TEMP              0 ****  ****    0 ROOT
