@<TRIPOS>MOLECULE
9LD
   61    65     1     0     0
SMALL
bcc


@<TRIPOS>ATOM
      1 N3           0.0000     0.0000     0.0000 na         1 9LD       0.643300
      2 C7           2.2480    -0.0000    -1.1810 c          1 9LD       0.617700
      3 C8           0.6220     0.0030     2.1140 cc         1 9LD       0.370600
      4 C10          3.1740    -0.0090     1.8680 c3         1 9LD       0.332100
      5 C17         -0.8250    -0.0000    -1.1310 ca         1 9LD      -0.170200
      6 C20          4.7430     1.1090    -5.3420 ca         1 9LD      -0.164600
      7 C21          6.6070     0.2270     3.8710 cc         1 9LD       0.010000
      8 C22          7.2800    -0.9100     5.7430 cd         1 9LD       0.047900
      9 C24          7.5880    -0.5110     4.5080 cc         1 9LD      -0.164000
     10 C26          3.6950     2.0220    -5.1910 ca         1 9LD      -0.024500
     11 C34          8.3820    -0.8100    -7.9570 c3         1 9LD      -0.004100
     12 C33          7.2840     0.2540    -7.9780 c3         1 9LD       0.227400
     13 O28          6.5460     0.2130    -6.7290 os         1 9LD      -0.414900
     14 O23          5.2800     1.8750    -7.4800 o          1 9LD      -0.593000
     15 C29          2.9560     2.0340    -4.0300 ca         1 9LD      -0.137500
     16 C25          3.2510     1.1380    -3.0070 ca         1 9LD      -0.069400
     17 N11          2.5010     1.1520    -1.8340 ns         1 9LD      -0.014100
     18 O19          2.7470    -1.0410    -1.5680 o          1 9LD      -0.624100
     19 C1           1.3720     0.0000     0.0000 cd         1 9LD      -0.306900
     20 C2           1.7700     0.0000     1.3130 cc         1 9LD      -0.288600
     21 N6           3.0700     0.2610     3.3140 n3         1 9LD      -0.537500
     22 C18          2.0420    -0.4470     4.0890 c3         1 9LD       0.229800
     23 C16          0.6510     0.0040     3.6240 c3         1 9LD      -0.051700
     24 N5          -0.4260     0.0070     1.3360 nd         1 9LD      -0.632800
     25 C31         -0.5380    -0.8350    -2.2030 ca         1 9LD      -0.090000
     26 C36         -1.3540    -0.8340    -3.3160 ca         1 9LD      -0.090000
     27 C37         -2.4570    -0.0020    -3.3650 ca         1 9LD      -0.087000
     28 C35         -2.7470     0.8310    -2.3000 ca         1 9LD      -0.090000
     29 C32         -1.9370     0.8290    -1.1800 ca         1 9LD      -0.090000
     30 S4           4.0910     1.3380     4.0490 sy         1 9LD       1.078200
     31 O14          4.5460     2.2180     3.0310 o          1 9LD      -0.577300
     32 O15          3.4260     1.7840     5.2230 o          1 9LD      -0.577300
     33 C9           5.5020     0.4330     4.5900 cd         1 9LD      -0.056600
     34 S12          5.6700    -0.3380     6.1620 ss         1 9LD      -0.193800
     35 C30          4.2930     0.2270    -3.1530 ca         1 9LD      -0.137500
     36 C27          5.0330     0.2060    -4.3140 ca         1 9LD      -0.024500
     37 H1           3.7330     0.7960     1.4060 h1         1 9LD       0.033700
     38 H2           3.5930    -0.9980     1.7300 h1         1 9LD       0.033700
     39 H3           6.7280     0.6120     2.8650 ha         1 9LD       0.130000
     40 H4           7.9230    -1.4950     6.3890 h4         1 9LD       0.148000
     41 H5           8.5350    -0.7500     4.0390 ha         1 9LD       0.126000
     42 H6           3.4650     2.7200    -5.9870 ha         1 9LD       0.122500
     43 H7           8.9330    -0.7790    -8.8900 hc         1 9LD       0.010367
     44 H8           7.9350    -1.7890    -7.8340 hc         1 9LD       0.010367
     45 H9           9.0580    -0.6160    -7.1330 hc         1 9LD       0.010367
     46 H10          7.7320     1.2330    -8.1010 h1         1 9LD       0.008700
     47 H11          6.6090     0.0600    -8.8030 h1         1 9LD       0.008700
     48 H12          2.1440     2.7420    -3.9130 ha         1 9LD       0.131000
     49 H13          2.1830     2.0220    -1.4540 hn         1 9LD       0.178500
     50 H14          2.1380    -1.5070     3.8880 h1         1 9LD       0.032200
     51 H15          2.1550    -0.1710     5.1300 h1         1 9LD       0.032200
     52 H16         -0.0760    -0.7170     3.9780 hc         1 9LD       0.038700
     53 H17          0.4910     1.0190     3.9660 hc         1 9LD       0.038700
     54 H18          0.3270    -1.4870    -2.1650 ha         1 9LD       0.128500
     55 H19         -1.1300    -1.4850    -4.1520 ha         1 9LD       0.110000
     56 H20         -3.0950    -0.0010    -4.2400 ha         1 9LD       0.106000
     57 H21         -3.6140     1.4800    -2.3400 ha         1 9LD       0.110000
     58 H22         -2.1650     1.4820    -0.3460 ha         1 9LD       0.128500
     59 H23          4.5180    -0.4700    -2.3560 ha         1 9LD       0.131000
     60 H24          5.8440    -0.5030    -4.4280 ha         1 9LD       0.122500
     61 C13          5.5360     1.0930    -6.5860 c          1 9LD       0.723700
@<TRIPOS>BOND
     1     1     5 1   
     2     1    19 1   
     3     1    24 1   
     4     2    17 1   
     5     2    18 2   
     6     2    19 1   
     7     3    20 1   
     8     3    23 1   
     9     3    24 2   
    10     4    20 1   
    11     4    21 1   
    12     4    37 1   
    13     4    38 1   
    14     5    25 ar  
    15     5    29 ar  
    16     6    10 ar  
    17     6    36 ar  
    18     6    61 1   
    19     7     9 1   
    20     7    33 2   
    21     7    39 1   
    22     8     9 2   
    23     8    34 1   
    24     8    40 1   
    25     9    41 1   
    26    10    15 ar  
    27    10    42 1   
    28    11    12 1   
    29    11    43 1   
    30    11    44 1   
    31    11    45 1   
    32    12    13 1   
    33    12    46 1   
    34    12    47 1   
    35    13    61 1   
    36    14    61 2   
    37    15    16 ar  
    38    15    48 1   
    39    16    17 1   
    40    16    35 ar  
    41    17    49 1   
    42    19    20 2   
    43    21    22 1   
    44    21    30 1   
    45    22    23 1   
    46    22    50 1   
    47    22    51 1   
    48    23    52 1   
    49    23    53 1   
    50    25    26 ar  
    51    25    54 1   
    52    26    27 ar  
    53    26    55 1   
    54    27    28 ar  
    55    27    56 1   
    56    28    29 ar  
    57    28    57 1   
    58    29    58 1   
    59    30    31 2   
    60    30    32 2   
    61    30    33 1   
    62    33    34 1   
    63    35    36 ar  
    64    35    59 1   
    65    36    60 1   
@<TRIPOS>SUBSTRUCTURE
     1 9LD         1 TEMP              0 ****  ****    0 ROOT
