@<TRIPOS>MOLECULE
molecule
   48    51     1     0     0
SMALL
bcc


@<TRIPOS>ATOM
      1 O6'          0.0000     0.0000     0.0000 oh         1 9LE      -0.598800
      2 C6'          1.4290     0.0000     0.0000 c3         1 9LE       0.158400
      3 C5'          1.9390     0.0000     1.4430 c3         1 9LE       0.128100
      4 C4'          3.4650     0.1250     1.4450 c3         1 9LE       0.112100
      5 O4'          3.8420     1.3710     0.8570 oh         1 9LE      -0.583800
      6 C3'          3.9730     0.0630     2.8890 c3         1 9LE       0.100100
      7 O3'          5.4010     0.1050     2.8960 oh         1 9LE      -0.604800
      8 O5'          1.5620    -1.2210     2.0820 os         1 9LE      -0.339600
      9 C1'          1.9680    -1.3150     3.4480 c3         1 9LE       0.140800
     10 C2'          3.4950    -1.2430     3.5310 c3         1 9LE       0.067500
     11 N2'          3.9130    -1.2800     4.9380 nz         1 9LE      -0.802600
     12 C1           1.4960    -2.6250     4.0240 cc         1 9LE       0.312800
     13 N2           0.5840    -2.7640     5.0130 na         1 9LE      -0.284900
     14 C3           0.4310    -4.1020     5.2440 cc         1 9LE      -0.222600
     15 C4           1.2620    -4.7450     4.3810 cd         1 9LE       0.393800
     16 N5           1.8940    -3.8060     3.6460 nd         1 9LE      -0.661000
     17 C6           1.4380    -6.2120     4.2650 ca         1 9LE      -0.137500
     18 C11          0.6990    -7.0700     5.0970 ca         1 9LE      -0.125000
     19 C10          0.8410    -8.4180     5.0110 ca         1 9LE      -0.101000
     20 C9           1.7380    -8.9710     4.0790 ca         1 9LE      -0.028000
     21 C15          1.9030   -10.3630     3.9700 ca         1 9LE      -0.116000
     22 C14          2.7780   -10.8690     3.0580 ca         1 9LE      -0.111000
     23 C13          3.5170   -10.0270     2.2290 ca         1 9LE      -0.115000
     24 C12          3.3840    -8.6750     2.3050 ca         1 9LE      -0.117000
     25 C8           2.4890    -8.1160     3.2350 ca         1 9LE      -0.042000
     26 C7           2.3240    -6.7250     3.3360 ca         1 9LE      -0.075000
     27 H1          -0.3140     0.0810    -0.8850 ho         1 9LE       0.423000
     28 H2           1.7900    -0.8850    -0.5110 h1         1 9LE       0.049700
     29 H3           1.7900     0.8850    -0.5110 h1         1 9LE       0.049700
     30 H4           1.5090     0.8350     1.9830 h1         1 9LE       0.070700
     31 H5           3.8940    -0.6920     0.8780 h1         1 9LE       0.077700
     32 H6           4.5620     1.2340     0.2640 ho         1 9LE       0.432000
     33 H7           3.5780     0.9040     3.4460 h1         1 9LE       0.060700
     34 H8           5.6890     0.9580     3.1770 ho         1 9LE       0.437000
     35 H9           1.5390    -0.4930     4.0080 h1         1 9LE       0.047700
     36 H10          3.9250    -2.0840     2.9990 hx         1 9LE       0.159700
     37 H11          3.8080    -2.2100     5.2930 hn         1 9LE       0.457800
     38 H12          4.8710    -1.0020     5.0100 hn         1 9LE       0.457800
     39 H14          0.1080    -2.0230     5.4880 hn         1 9LE       0.307700
     40 H15         -0.2230    -4.5610     5.9750 h4         1 9LE       0.202000
     41 H17          0.0060    -6.6500     5.8160 ha         1 9LE       0.123000
     42 H18          0.2630    -9.0660     5.6590 ha         1 9LE       0.143000
     43 H19          1.3350   -11.0290     4.6080 ha         1 9LE       0.140000
     44 H20          2.9030   -11.9420     2.9770 ha         1 9LE       0.139000
     45 H21          4.2070   -10.4560     1.5110 ha         1 9LE       0.137000
     46 H22          3.9640    -8.0330     1.6540 ha         1 9LE       0.134000
     47 H23          2.9850    -6.0600     2.7930 ha         1 9LE       0.143000
     48 H2'3         3.3300    -0.6680     5.4750 hn         1 9LE       0.457800
@<TRIPOS>BOND
     1     7     6 1
     2     5     4 1
     3     6     4 1
     4     6    10 1
     5     4     3 1
     6    11    10 1
     7    10     9 1
     8     1     2 1
     9     3     2 1
    10     3     8 1
    11     9     8 1
    12     9    12 1
    13    13    12 1
    14    13    14 1
    15    12    16 2
    16    14    15 2
    17    16    15 1
    18    15    17 1
    19    17    26 ar
    20    17    18 ar
    21    26    25 ar
    22    18    19 ar
    23    25    24 ar
    24    25    20 ar
    25    24    23 ar
    26    19    20 ar
    27    20    21 ar
    28    23    22 ar
    29    21    22 ar
    30     1    27 1
    31     2    28 1
    32     2    29 1
    33     3    30 1
    34     4    31 1
    35     5    32 1
    36     6    33 1
    37     7    34 1
    38     9    35 1
    39    10    36 1
    40    11    37 1
    41    11    38 1
    42    13    39 1
    43    14    40 1
    44    18    41 1
    45    19    42 1
    46    21    43 1
    47    22    44 1
    48    23    45 1
    49    24    46 1
    50    26    47 1
    51    48    11 1
@<TRIPOS>SUBSTRUCTURE
     1 9LE         1 TEMP              0 ****  ****    0 ROOT
