@<TRIPOS>MOLECULE
9LG
   62    66     1     0     0
SMALL
bcc


@<TRIPOS>ATOM
      1 C4           0.0000     0.0000     0.0000 cc         1 9LG      -0.397900
      2 C6           2.4540    -0.4140     6.7540 ca         1 9LG      -0.192500
      3 C7           1.7890     0.0000     1.3320 cd         1 9LG      -0.168300
      4 C8           1.3800     0.0000     0.0000 cd         1 9LG      -0.062000
      5 C10         -0.8670     0.0000    -1.1830 c          1 9LG       0.650700
      6 C15          3.1840     0.4410     3.3260 c3         1 9LG       0.224800
      7 C17          3.2020    -0.0050     1.8590 c3         1 9LG       0.055900
      8 C21          1.5070    -0.6640     7.7280 ca         1 9LG       0.029000
      9 C22         -2.3250     1.3980     1.8370 ca         1 9LG      -0.133300
     10 C24          3.4380     1.2710     8.1470 ca         1 9LG      -0.160000
     11 C26         -2.2790     2.0950     3.0300 ca         1 9LG      -0.110000
     12 C28         -5.2510     0.8430    -1.6640 ca         1 9LG      -0.086500
     13 C16          3.4240     0.5520     6.9630 ca         1 9LG       0.205900
     14 C30          2.4860     1.0240     9.1170 ca         1 9LG      -0.023000
     15 C29          1.5220     0.0550     8.9090 ca         1 9LG      -0.145000
     16 N5           2.1010    -0.2610     4.0290 n3         1 9LG      -0.529500
     17 O18         -0.3790     0.0830    -2.2950 o          1 9LG      -0.636100
     18 N14         -2.2030    -0.0920    -1.0390 ns         1 9LG      -0.284900
     19 C19         -3.0590    -0.2290    -2.2210 c3         1 9LG       0.121300
     20 C23         -4.5010    -0.3110    -1.7880 ca         1 9LG      -0.132300
     21 C27         -5.0720    -1.5400    -1.5170 ca         1 9LG      -0.086500
     22 C33         -6.3950    -1.6150    -1.1210 ca         1 9LG      -0.100500
     23 C35         -7.1450    -0.4610    -0.9960 ca         1 9LG      -0.091000
     24 C34         -6.5740     0.7680    -1.2670 ca         1 9LG      -0.100500
     25 N2          -0.4160    -0.0060     1.3140 na         1 9LG       0.487900
     26 C25         -2.8400     2.0000     0.7040 ca         1 9LG      -0.110000
     27 C31         -3.3140     3.2970     0.7660 ca         1 9LG      -0.091000
     28 C36         -3.2730     3.9920     1.9600 ca         1 9LG      -0.088000
     29 C32         -2.7540     3.3920     3.0910 ca         1 9LG      -0.091000
     30 C3           0.6750    -0.0010     2.1110 cc         1 9LG      -0.316600
     31 C9           0.7100     0.0080     3.6220 c3         1 9LG       0.332100
     32 H1           2.0170    -0.1620    -0.8610 ha         1 9LG       0.140000
     33 H2          -2.4110    -0.5880     1.0760 h1         1 9LG       0.050200
     34 H3          -1.8630    -0.4670     2.7530 h1         1 9LG       0.050200
     35 H4           2.9740     1.5030     3.3540 h1         1 9LG       0.033700
     36 H5           4.1250     0.1520     3.7790 h1         1 9LG       0.033700
     37 H6           3.8070     0.6820     1.2790 hc         1 9LG       0.025200
     38 H7           3.6110    -1.0050     1.7890 hc         1 9LG       0.025200
     39 H8           0.7500    -1.4210     7.5650 ha         1 9LG       0.132000
     40 H9           4.1950     2.0280     8.3110 ha         1 9LG       0.125000
     41 H10         -1.8720     1.6250     3.9170 ha         1 9LG       0.124000
     42 H11         -4.8040     1.8060    -1.8760 ha         1 9LG       0.109000
     43 H12          2.4970     1.5870    10.0430 ha         1 9LG       0.107000
     44 H13          0.7770    -0.1400     9.6710 ha         1 9LG       0.113000
     45 H14         -2.6060    -0.1260    -0.1240 hn         1 9LG       0.221500
     46 H15         -2.9240     0.6300    -2.8660 h1         1 9LG       0.031200
     47 H16         -2.7920    -1.1300    -2.7580 h1         1 9LG       0.031200
     48 H17         -4.4840    -2.4440    -1.6150 ha         1 9LG       0.109000
     49 H18         -6.8430    -2.5790    -0.9080 ha         1 9LG       0.105500
     50 H19         -8.1820    -0.5200    -0.6860 ha         1 9LG       0.104000
     51 H20         -7.1630     1.6720    -1.1690 ha         1 9LG       0.105500
     52 H21         -2.8710     1.4560    -0.2320 ha         1 9LG       0.124000
     53 H22         -3.7190     3.7680    -0.1210 ha         1 9LG       0.105500
     54 H23         -3.6450     5.0080     2.0080 ha         1 9LG       0.105000
     55 H24         -2.7200     3.9370     4.0260 ha         1 9LG       0.105500
     56 H25          0.0830    -0.7970     3.9860 h1         1 9LG       0.028700
     57 H26          0.4350     0.9970     3.9670 h1         1 9LG       0.028700
     58 C13         -1.8080    -0.0160     1.7700 c3         1 9LG      -0.022400
     59 S1           2.4350    -1.3300     5.2480 sy         1 9LG       1.058200
     60 F20          4.3550     0.7930     6.0140 f          1 9LG      -0.117900
     61 O11          3.7650    -1.7800     5.0350 o          1 9LG      -0.580800
     62 O12          1.3200    -2.2080     5.3280 o          1 9LG      -0.580800
@<TRIPOS>BOND
     1     1     4 2   
     2     1     5 1   
     3     1    25 1   
     4     2     8 ar  
     5     2    13 ar  
     6     2    59 1   
     7     3     4 1   
     8     3     7 1   
     9     3    30 2   
    10     4    32 1   
    11     5    17 2   
    12     5    18 1   
    13     6     7 1   
    14     6    16 1   
    15     6    35 1   
    16     6    36 1   
    17     7    37 1   
    18     7    38 1   
    19     8    15 ar  
    20     8    39 1   
    21     9    11 ar  
    22     9    26 ar  
    23     9    58 1   
    24    10    13 ar  
    25    10    14 ar  
    26    10    40 1   
    27    11    29 ar  
    28    11    41 1   
    29    12    20 ar  
    30    12    24 ar  
    31    12    42 1   
    32    13    60 1   
    33    14    15 ar  
    34    14    43 1   
    35    15    44 1   
    36    16    31 1   
    37    16    59 1   
    38    18    19 1   
    39    18    45 1   
    40    19    20 1   
    41    19    46 1   
    42    19    47 1   
    43    20    21 ar  
    44    21    22 ar  
    45    21    48 1   
    46    22    23 ar  
    47    22    49 1   
    48    23    24 ar  
    49    23    50 1   
    50    24    51 1   
    51    25    30 1   
    52    25    58 1   
    53    26    27 ar  
    54    26    52 1   
    55    27    28 ar  
    56    27    53 1   
    57    28    29 ar  
    58    28    54 1   
    59    29    55 1   
    60    30    31 1   
    61    31    56 1   
    62    31    57 1   
    63    33    58 1   
    64    34    58 1   
    65    59    61 2   
    66    59    62 2   
@<TRIPOS>SUBSTRUCTURE
     1 9LG         1 TEMP              0 ****  ****    0 ROOT
