@<TRIPOS>MOLECULE
molecule
   28    29     1     0     0
SMALL
bcc


@<TRIPOS>ATOM
      1 C1           0.0000     0.0000     0.0000 c3         1 9LI      -0.042900
      2 Cl1          4.9710    -0.0000     3.0350 cl         1 9LI      -0.128400
      3 C2           1.5070     0.0000     0.0000 cc         1 9LI      -0.004300
      4 Cl2          7.4960    -0.0000    -1.7380 cl         1 9LI      -0.060400
      5 C3           2.2780     0.0000     1.0980 cd         1 9LI      -0.203400
      6 C4           3.6710     0.0010     0.6450 ca         1 9LI      -0.095800
      7 C5           3.6220     0.0000    -0.7610 ca         1 9LI      -0.015200
      8 N6           2.2930    -0.0050    -1.1210 na         1 9LI      -0.157400
      9 C8           4.8090     0.0010    -1.4860 ca         1 9LI      -0.120000
     10 C9           6.0190     0.0000    -0.8250 ca         1 9LI       0.057400
     11 C10          6.0680     0.0010     0.5630 ca         1 9LI      -0.116000
     12 C11          4.9040     0.0010     1.3000 ca         1 9LI       0.066400
     13 C14          1.8000     0.0010     2.5280 c3         1 9LI      -0.016200
     14 C15          1.6390    -1.4410     3.0130 c3         1 9LI       0.089800
     15 N16          1.1750    -1.4400     4.4060 nz         1 9LI      -0.810600
     16 H1          -0.3610    -0.9360     0.4090 hc         1 9LI       0.058700
     17 H1A         -0.3610     0.1140    -1.0150 hc         1 9LI       0.058700
     18 H1B         -0.3610     0.8220     0.6060 hc         1 9LI       0.058700
     19 H8           4.7820     0.0470    -2.5680 ha         1 9LI       0.159000
     20 H10          7.0270     0.0020     1.0680 ha         1 9LI       0.170000
     21 H14          0.8470     0.5120     2.5900 hc         1 9LI       0.069700
     22 H14A         2.5250     0.5130     3.1510 hc         1 9LI       0.069700
     23 H15          0.9150    -1.9520     2.3910 hx         1 9LI       0.114700
     24 H15A         2.5930    -1.9510     2.9500 hx         1 9LI       0.114700
     25 HN16         0.2710    -1.0130     4.4560 hn         1 9LI       0.454800
     26 HN1A         1.8190    -0.9250     4.9720 hn         1 9LI       0.454800
     27 HN6          1.9520    -0.0120    -2.0620 hn         1 9LI       0.318700
     28 H163         1.1470    -2.3800     4.7480 hn         1 9LI       0.454800
@<TRIPOS>BOND
     1     3     1 1
     2     1    16 1
     3     1    17 1
     4     1    18 1
     5     2    12 1
     6     5     3 2
     7     8     3 1
     8     4    10 1
     9     6     5 1
    10     5    13 1
    11    12     6 ar
    12     6     7 ar
    13     9     7 ar
    14     7     8 1
    15    10     9 ar
    16     9    19 1
    17    11    10 ar
    18    11    12 ar
    19    11    20 1
    20    13    14 1
    21    13    21 1
    22    13    22 1
    23    14    15 1
    24    14    23 1
    25    14    24 1
    26    15    25 1
    27    15    26 1
    28     8    27 1
    29    28    15 1
@<TRIPOS>SUBSTRUCTURE
     1 9LI         1 TEMP              0 ****  ****    0 ROOT
