@<TRIPOS>MOLECULE
9LI
   28    29     1     0     0
SMALL
bcc


@<TRIPOS>ATOM
      1 C1           0.0000     0.0000     0.0000 c3         1 9LI       0.090100
      2 Cl1          4.9710    -0.0000     3.0350 cl         1 9LI      -0.057400
      3 C2           1.5070     0.0000     0.0000 cc         1 9LI      -0.208300
      4 Cl2          7.4960    -0.0000    -1.7380 cl         1 9LI       0.022600
      5 C3           2.2780     0.0000     1.0980 cd         1 9LI      -0.214400
      6 C4           3.6710     0.0010     0.6450 ca         1 9LI      -0.089800
      7 C5           3.6220     0.0000    -0.7610 ca         1 9LI      -0.207200
      8 N6           2.2930    -0.0050    -1.1210 na         1 9LI       0.396600
      9 C8           4.8090     0.0010    -1.4860 ca         1 9LI      -0.077000
     10 C9           6.0190     0.0000    -0.8250 ca         1 9LI      -0.018600
     11 C10          6.0680     0.0010     0.5630 ca         1 9LI      -0.092000
     12 C11          4.9040     0.0010     1.3000 ca         1 9LI       0.017400
     13 C14          1.8000     0.0010     2.5280 c3         1 9LI       0.070800
     14 C15          1.6390    -1.4410     3.0130 c3         1 9LI      -0.064200
     15 N16          1.1750    -1.4400     4.4060 nz         1 9LI       0.086400
     16 H1          -0.3610    -0.9360     0.4090 hc         1 9LI       0.014367
     17 H1A         -0.3610     0.1140    -1.0150 hc         1 9LI       0.014367
     18 H1B         -0.3610     0.8220     0.6060 hc         1 9LI       0.014367
     19 H8           4.7820     0.0470    -2.5680 ha         1 9LI       0.125000
     20 H10          7.0270     0.0020     1.0680 ha         1 9LI       0.136000
     21 H14          0.8470     0.5120     2.5900 hc         1 9LI       0.035700
     22 H14A         2.5250     0.5130     3.1510 hc         1 9LI       0.035700
     23 H15          0.9150    -1.9520     2.3910 hx         1 9LI       0.088200
     24 H15A         2.5930    -1.9510     2.9500 hx         1 9LI       0.088200
     25 HN16         0.2710    -1.0130     4.4560 hn         1 9LI       0.220800
     26 HN1A         1.8190    -0.9250     4.9720 hn         1 9LI       0.220800
     27 HN6          1.9520    -0.0120    -2.0620 hn         1 9LI       0.130700
     28 H163         1.1470    -2.3800     4.7480 hn         1 9LI       0.220800
@<TRIPOS>BOND
     1     1     3 1   
     2     1    16 1   
     3     1    17 1   
     4     1    18 1   
     5     2    12 1   
     6     3     5 2   
     7     3     8 1   
     8     4    10 1   
     9     5     6 1   
    10     5    13 1   
    11     6     7 ar  
    12     6    12 ar  
    13     7     8 1   
    14     7     9 ar  
    15     8    27 1   
    16     9    10 ar  
    17     9    19 1   
    18    10    11 ar  
    19    11    12 ar  
    20    11    20 1   
    21    13    14 1   
    22    13    21 1   
    23    13    22 1   
    24    14    15 1   
    25    14    23 1   
    26    14    24 1   
    27    15    25 1   
    28    15    26 1   
    29    15    28 1   
@<TRIPOS>SUBSTRUCTURE
     1 9LI         1 TEMP              0 ****  ****    0 ROOT
