@<TRIPOS>MOLECULE
molecule
   59    63     1     0     0
SMALL
bcc


@<TRIPOS>ATOM
      1 C4           0.0000     0.0000     0.0000 ca         1 9LJ      -0.087000
      2 C7           1.3990     0.0000     0.0000 ca         1 9LJ       0.121400
      3 C8           2.0910     0.0000     1.2240 ca         1 9LJ      -0.081200
      4 C10          3.5290     0.0030    -0.4610 cc         1 9LJ       0.490400
      5 C13          5.9250     0.6360    -0.7110 ca         1 9LJ      -0.099500
      6 C15          7.1590     0.0140    -2.6660 ca         1 9LJ       0.077400
      7 C17          4.8600    -0.6290    -2.4700 ca         1 9LJ      -0.099500
      8 C20          4.0220     0.2320     3.2690 c3         1 9LJ      -0.092700
      9 C21          5.2640    -1.3260     1.7930 c          1 9LJ       0.634100
     10 C24          5.1750     0.1280     4.2700 c3         1 9LJ      -0.090400
     11 C26          4.0140     1.7510     5.7750 c3         1 9LJ      -0.084400
     12 C28          3.3930     1.6240     3.3570 c3         1 9LJ      -0.090400
     13 C1          -0.6840    -0.0020     1.1950 ca         1 9LJ       0.142900
     14 C2           0.0050    -0.0030     2.4040 ca         1 9LJ       0.040900
     15 C3           1.3870    -0.0020     2.4190 ca         1 9LJ      -0.136000
     16 N11          2.3290     0.0020    -0.9860 nd         1 9LJ      -0.583100
     17 N9           3.4360     0.0010     0.9050 na         1 9LJ      -0.124300
     18 C19          4.5540     0.0020     1.8540 c3         1 9LJ      -0.010000
     19 C25          4.6420     0.3580     5.6850 c3         1 9LJ      -0.076400
     20 C27          2.8610     1.8540     4.7730 c3         1 9LJ      -0.076400
     21 N22          6.4730    -1.4710     2.3700 ns         1 9LJ      -0.470100
     22 C29          7.1330    -2.6980     2.3100 ca         1 9LJ       0.096600
     23 C30          7.9870    -3.0910     3.3510 ca         1 9LJ      -0.061000
     24 C31          8.6410    -4.3230     3.2790 ca         1 9LJ      -0.067000
     25 C32          8.4450    -5.1430     2.1870 ca         1 9LJ      -0.150000
     26 C33          7.6010    -4.7510     1.1620 ca         1 9LJ      -0.080000
     27 C34          6.9420    -3.5380     1.2220 ca         1 9LJ      -0.140000
     28 C35          8.1860    -2.2340     4.4820 cg         1 9LJ       0.240800
     29 N36          8.3310    -1.5430     5.3710 n1         1 9LJ      -0.369800
     30 C12          4.7940     0.0040    -1.2270 ca         1 9LJ      -0.099900
     31 C14          7.1010     0.6380    -1.4320 ca         1 9LJ      -0.118000
     32 C16          6.0400    -0.6160    -3.1840 ca         1 9LJ      -0.118000
     33 F6          -0.6330     0.2850     3.8170 f          1 9LJ      -0.165900
     34 F5          -1.8530    -0.2330     1.7520 f          1 9LJ      -0.113900
     35 H1          -0.5420     0.0000    -0.9380 ha         1 9LJ       0.164000
     36 H2           5.8670     1.1640     0.2340 ha         1 9LJ       0.153000
     37 H3           3.9740    -1.0850    -2.8940 ha         1 9LJ       0.153000
     38 H4           3.2740    -0.5160     3.5040 hc         1 9LJ       0.091700
     39 H5           5.5370    -0.8930     4.2830 hc         1 9LJ       0.050950
     40 H6           5.9740     0.7870     3.9530 hc         1 9LJ       0.050950
     41 H7           4.7960     2.4940     5.6750 hc         1 9LJ       0.046200
     42 H8           3.5390     1.8590     6.7420 hc         1 9LJ       0.046200
     43 H9           2.5090     1.6490     2.7320 hc         1 9LJ       0.050950
     44 H10          4.1060     2.3540     2.9960 hc         1 9LJ       0.050950
     45 H11          1.9200    -0.0020     3.3630 ha         1 9LJ       0.169000
     46 H12          5.2460     0.7940     1.5950 h1         1 9LJ       0.075700
     47 H13          5.4790     0.3990     6.3720 hc         1 9LJ       0.053200
     48 H14          3.9970    -0.4690     5.9560 hc         1 9LJ       0.053200
     49 H15          2.0620     1.1960     5.0910 hc         1 9LJ       0.053200
     50 H16          2.4990     2.8750     4.7600 hc         1 9LJ       0.053200
     51 H17          6.9030    -0.6940     2.8310 hn         1 9LJ       0.339500
     52 H18          9.3020    -4.6330     4.0790 ha         1 9LJ       0.146000
     53 H19          8.9520    -6.0980     2.1300 ha         1 9LJ       0.141000
     54 H20          7.4510    -5.3990     0.3070 ha         1 9LJ       0.143000
     55 H21          6.2530    -3.2580     0.4350 ha         1 9LJ       0.164000
     56 H22          7.9800     1.1280    -1.0320 ha         1 9LJ       0.154000
     57 H23          6.0910    -1.1030    -4.1500 ha         1 9LJ       0.154000
     58 O23          4.5690    -2.3060     1.5450 o          1 9LJ      -0.559100
     59 Cl18         8.5600    -0.0930    -3.9360 cl         1 9LJ      -0.160400
@<TRIPOS>BOND
     1    25    26 ar
     2    25    24 ar
     3    26    27 ar
     4    24    23 ar
     5    31     5 ar
     6    31     6 ar
     7    27    22 ar
     8    23    22 ar
     9    23    28 1
    10     5    30 ar
    11    59     6 1
    12    22    21 1
    13    16     2 1
    14    16     4 2
    15    28    29 3
    16     6    32 ar
    17     1     2 ar
    18     1    13 ar
    19    34    13 1
    20     2     3 ar
    21    30     4 1
    22    30     7 ar
    23     4    17 1
    24    21     9 1
    25    13    14 ar
    26    32     7 ar
    27     3    17 1
    28     3    15 ar
    29    17    18 1
    30    14    15 ar
    31    14    33 1
    32     9    18 1
    33     9    58 2
    34    18     8 1
    35     8    12 1
    36     8    10 1
    37    12    20 1
    38    10    19 1
    39    20    11 1
    40    19    11 1
    41     1    35 1
    42     5    36 1
    43     7    37 1
    44     8    38 1
    45    10    39 1
    46    10    40 1
    47    11    41 1
    48    11    42 1
    49    12    43 1
    50    12    44 1
    51    15    45 1
    52    18    46 1
    53    19    47 1
    54    19    48 1
    55    20    49 1
    56    20    50 1
    57    21    51 1
    58    24    52 1
    59    25    53 1
    60    26    54 1
    61    27    55 1
    62    31    56 1
    63    32    57 1
@<TRIPOS>SUBSTRUCTURE
     1 9LJ         1 TEMP              0 ****  ****    0 ROOT
