@<TRIPOS>MOLECULE
9LJ
   59    63     1     0     0
SMALL
bcc


@<TRIPOS>ATOM
      1 C4           0.0000     0.0000     0.0000 ca         1 9LJ      -0.027000
      2 C7           1.3990     0.0000     0.0000 ca         1 9LJ       0.085400
      3 C8           2.0910     0.0000     1.2240 ca         1 9LJ      -0.245200
      4 C10          3.5290     0.0030    -0.4610 cc         1 9LJ       0.290400
      5 C13          5.9250     0.6360    -0.7110 ca         1 9LJ      -0.088000
      6 C15          7.1590     0.0140    -2.6660 ca         1 9LJ       0.001400
      7 C17          4.8600    -0.6290    -2.4700 ca         1 9LJ      -0.088000
      8 C20          4.0220     0.2320     3.2690 c3         1 9LJ      -0.078700
      9 C21          5.2640    -1.3260     1.7930 c          1 9LJ       0.538100
     10 C24          5.1750     0.1280     4.2700 c3         1 9LJ      -0.053900
     11 C26          4.0140     1.7510     5.7750 c3         1 9LJ      -0.028400
     12 C28          3.3930     1.6240     3.3570 c3         1 9LJ      -0.053900
     13 C1          -0.6840    -0.0020     1.1950 ca         1 9LJ       0.101900
     14 C2           0.0050    -0.0030     2.4040 ca         1 9LJ       0.065900
     15 C3           1.3870    -0.0020     2.4190 ca         1 9LJ      -0.129000
     16 N11          2.3290     0.0020    -0.9860 nd         1 9LJ      -0.500100
     17 N9           3.4360     0.0010     0.9050 na         1 9LJ       0.358700
     18 C19          4.5540     0.0020     1.8540 c3         1 9LJ      -0.142000
     19 C25          4.6420     0.3580     5.6850 c3         1 9LJ      -0.019900
     20 C27          2.8610     1.8540     4.7730 c3         1 9LJ      -0.019900
     21 N22          6.4730    -1.4710     2.3700 ns         1 9LJ      -0.027100
     22 C29          7.1330    -2.6980     2.3100 ca         1 9LJ      -0.059400
     23 C30          7.9870    -3.0910     3.3510 ca         1 9LJ      -0.010000
     24 C31          8.6410    -4.3230     3.2790 ca         1 9LJ      -0.046000
     25 C32          8.4450    -5.1430     2.1870 ca         1 9LJ      -0.115000
     26 C33          7.6010    -4.7510     1.1620 ca         1 9LJ      -0.051000
     27 C34          6.9420    -3.5380     1.2220 ca         1 9LJ      -0.111000
     28 C35          8.1860    -2.2340     4.4820 cg         1 9LJ       0.229800
     29 N36          8.3310    -1.5430     5.3710 n1         1 9LJ      -0.382800
     30 C12          4.7940     0.0040    -1.2270 ca         1 9LJ      -0.093900
     31 C14          7.1010     0.6380    -1.4320 ca         1 9LJ      -0.091000
     32 C16          6.0400    -0.6160    -3.1840 ca         1 9LJ      -0.091000
     33 F6          -0.6330     0.2850     3.8170 f          1 9LJ      -0.183900
     34 F5          -1.8530    -0.2330     1.7520 f          1 9LJ      -0.103900
     35 H1          -0.5420     0.0000    -0.9380 ha         1 9LJ       0.125000
     36 H2           5.8670     1.1640     0.2340 ha         1 9LJ       0.122000
     37 H3           3.9740    -1.0850    -2.8940 ha         1 9LJ       0.122000
     38 H4           3.2740    -0.5160     3.5040 hc         1 9LJ       0.076700
     39 H5           5.5370    -0.8930     4.2830 hc         1 9LJ       0.028700
     40 H6           5.9740     0.7870     3.9530 hc         1 9LJ       0.028700
     41 H7           4.7960     2.4940     5.6750 hc         1 9LJ       0.018700
     42 H8           3.5390     1.8590     6.7420 hc         1 9LJ       0.018700
     43 H9           2.5090     1.6490     2.7320 hc         1 9LJ       0.028700
     44 H10          4.1060     2.3540     2.9960 hc         1 9LJ       0.028700
     45 H11          1.9200    -0.0020     3.3630 ha         1 9LJ       0.163000
     46 H12          5.2460     0.7940     1.5950 h1         1 9LJ       0.063700
     47 H13          5.4790     0.3990     6.3720 hc         1 9LJ       0.024950
     48 H14          3.9970    -0.4690     5.9560 hc         1 9LJ       0.024950
     49 H15          2.0620     1.1960     5.0910 hc         1 9LJ       0.024950
     50 H16          2.4990     2.8750     4.7600 hc         1 9LJ       0.024950
     51 H17          6.9030    -0.6940     2.8310 hn         1 9LJ       0.192500
     52 H18          9.3020    -4.6330     4.0790 ha         1 9LJ       0.115000
     53 H19          8.9520    -6.0980     2.1300 ha         1 9LJ       0.112000
     54 H20          7.4510    -5.3990     0.3070 ha         1 9LJ       0.110000
     55 H21          6.2530    -3.2580     0.4350 ha         1 9LJ       0.140000
     56 H22          7.9800     1.1280    -1.0320 ha         1 9LJ       0.119000
     57 H23          6.0910    -1.1030    -4.1500 ha         1 9LJ       0.119000
     58 O23          4.5690    -2.3060     1.5450 o          1 9LJ      -0.604100
     59 Cl18         8.5600    -0.0930    -3.9360 cl         1 9LJ      -0.058400
@<TRIPOS>BOND
     1     1     2 ar  
     2     1    13 ar  
     3     1    35 1   
     4     2     3 ar  
     5     2    16 1   
     6     3    15 ar  
     7     3    17 1   
     8     4    16 2   
     9     4    17 1   
    10     4    30 1   
    11     5    30 ar  
    12     5    31 ar  
    13     5    36 1   
    14     6    31 ar  
    15     6    32 ar  
    16     6    59 1   
    17     7    30 ar  
    18     7    32 ar  
    19     7    37 1   
    20     8    10 1   
    21     8    12 1   
    22     8    18 1   
    23     8    38 1   
    24     9    18 1   
    25     9    21 1   
    26     9    58 2   
    27    10    19 1   
    28    10    39 1   
    29    10    40 1   
    30    11    19 1   
    31    11    20 1   
    32    11    41 1   
    33    11    42 1   
    34    12    20 1   
    35    12    43 1   
    36    12    44 1   
    37    13    14 ar  
    38    13    34 1   
    39    14    15 ar  
    40    14    33 1   
    41    15    45 1   
    42    17    18 1   
    43    18    46 1   
    44    19    47 1   
    45    19    48 1   
    46    20    49 1   
    47    20    50 1   
    48    21    22 1   
    49    21    51 1   
    50    22    23 ar  
    51    22    27 ar  
    52    23    24 ar  
    53    23    28 1   
    54    24    25 ar  
    55    24    52 1   
    56    25    26 ar  
    57    25    53 1   
    58    26    27 ar  
    59    26    54 1   
    60    27    55 1   
    61    28    29 3   
    62    31    56 1   
    63    32    57 1   
@<TRIPOS>SUBSTRUCTURE
     1 9LJ         1 TEMP              0 ****  ****    0 ROOT
