@<TRIPOS>MOLECULE
molecule
   41    44     1     0     0
SMALL
bcc


@<TRIPOS>ATOM
      1 C10          0.0000     0.0000     0.0000 c          1 9LL       0.633100
      2 C15         -4.4830     0.6860     0.4550 cc         1 9LL      -0.252400
      3 C20          2.4530    -3.4020    -1.2250 ca         1 9LL      -0.150600
      4 C21          2.5480    -4.7950    -1.2490 ca         1 9LL      -0.054000
      5 C22          3.2040    -5.4200    -2.2880 ca         1 9LL      -0.139000
      6 C24          3.6780    -3.2930    -3.2920 ca         1 9LL      -0.117000
      7 C26          2.7540    -1.2090    -1.9460 c3         1 9LL       0.149300
      8 C02          3.3310     0.3210     1.6900 ca         1 9LL       0.129100
      9 C03          3.7920     0.3210     2.9980 ca         1 9LL      -0.180000
     10 C04          2.9330     0.0010     4.0320 ca         1 9LL      -0.124000
     11 C05          1.6140    -0.3200     3.7630 ca         1 9LL       0.114900
     12 C07          1.1530    -0.3200     2.4560 ca         1 9LL      -0.096000
     13 C08          2.0090     0.0000     1.4210 ca         1 9LL      -0.116300
     14 C09          1.5070     0.0000     0.0000 c3         1 9LL       0.152000
     15 C12         -2.0600     1.1140     0.3680 cc         1 9LL       0.532300
     16 C14         -4.1050     1.9460     0.6800 cd         1 9LL       0.389200
     17 C19          1.8260    -2.4640    -0.2750 c          1 9LL       0.727100
     18 C23          3.7680    -4.6750    -3.3080 ca         1 9LL      -0.103000
     19 C25          3.0270    -2.6580    -2.2600 ca         1 9LL      -0.089300
     20 F06          0.7750    -0.6330     4.7740 f          1 9LL      -0.132900
     21 N11         -0.6730     1.1350     0.2740 ns         1 9LL      -0.521400
     22 N13         -2.8010     2.1450     0.6270 nd         1 9LL      -0.743000
     23 N18          1.9950    -1.1970    -0.6910 n          1 9LL      -0.479800
     24 O01          4.1740     0.6420     0.6730 oh         1 9LL      -0.509100
     25 O17         -0.6060    -1.0190    -0.2520 o          1 9LL      -0.545100
     26 O27          1.2390    -2.7900     0.7390 o          1 9LL      -0.607500
     27 S16         -3.0350    -0.2750     0.1680 ss         1 9LL      -0.074300
     28 H2           2.1080    -5.3820    -0.4530 ha         1 9LL       0.149000
     29 H3           3.2770    -6.5010    -2.3060 ha         1 9LL       0.137000
     30 H4           4.1210    -2.7120    -4.0920 ha         1 9LL       0.132000
     31 H5           3.6880    -0.6750    -1.8190 h1         1 9LL       0.062200
     32 H6           2.1670    -0.7620    -2.7380 h1         1 9LL       0.062200
     33 H7           4.8240     0.5720     3.2100 ha         1 9LL       0.142000
     34 H8           3.2930     0.0010     5.0540 ha         1 9LL       0.150000
     35 H9           0.1200    -0.5710     2.2460 ha         1 9LL       0.169000
     36 H10          1.8690     0.8840    -0.5110 h1         1 9LL       0.084700
     37 H11         -4.8120     2.7410     0.8870 h4         1 9LL       0.041100
     38 H12          4.2820    -5.1740    -4.1210 ha         1 9LL       0.135000
     39 H13         -0.1790     2.0000     0.3640 hn         1 9LL       0.342500
     40 H14          4.7390     1.3470     0.9420 ho         1 9LL       0.424000
     41 H1          -5.5010     0.3180     0.4550 h4         1 9LL       0.179000
@<TRIPOS>BOND
     1    24     8 1
     2     9     8 ar
     3     9    10 ar
     4     8    13 ar
     5    26    17 2
     6    10    11 ar
     7    17    23 1
     8    17     3 1
     9    13    14 1
    10    13    12 ar
    11    14    23 1
    12    14     1 1
    13     4     3 ar
    14     4     5 ar
    15    23     7 1
    16     3    19 ar
    17     5    18 ar
    18     7    19 1
    19    19     6 ar
    20    11    12 ar
    21    11    20 1
    22    18     6 ar
    23    21     1 1
    24    21    15 1
    25     1    25 2
    26    15    22 2
    27    15    27 1
    28    22    16 1
    29    16     2 2
    30    27     2 1
    31     2    41 1
    32     4    28 1
    33     5    29 1
    34     6    30 1
    35     7    31 1
    36     7    32 1
    37     9    33 1
    38    10    34 1
    39    12    35 1
    40    14    36 1
    41    16    37 1
    42    18    38 1
    43    21    39 1
    44    24    40 1
@<TRIPOS>SUBSTRUCTURE
     1 9LL         1 TEMP              0 ****  ****    0 ROOT
