@<TRIPOS>MOLECULE
9LL
   41    44     1     0     0
SMALL
bcc


@<TRIPOS>ATOM
      1 C10          0.0000     0.0000     0.0000 c          1 9LL       0.517100
      2 C15         -4.4830     0.6860     0.4550 cc         1 9LL      -0.159400
      3 C20          2.4530    -3.4020    -1.2250 ca         1 9LL      -0.162600
      4 C21          2.5480    -4.7950    -1.2490 ca         1 9LL      -0.014000
      5 C22          3.2040    -5.4200    -2.2880 ca         1 9LL      -0.117000
      6 C24          3.6780    -3.2930    -3.2920 ca         1 9LL      -0.085000
      7 C26          2.7540    -1.2090    -1.9460 c3         1 9LL       0.116300
      8 C02          3.3310     0.3210     1.6900 ca         1 9LL       0.147100
      9 C03          3.7920     0.3210     2.9980 ca         1 9LL      -0.161000
     10 C04          2.9330     0.0010     4.0320 ca         1 9LL      -0.084000
     11 C05          1.6140    -0.3200     3.7630 ca         1 9LL       0.084900
     12 C07          1.1530    -0.3200     2.4560 ca         1 9LL      -0.064000
     13 C08          2.0090     0.0000     1.4210 ca         1 9LL      -0.137300
     14 C09          1.5070     0.0000     0.0000 c3         1 9LL       0.081000
     15 C12         -2.0600     1.1140     0.3680 cc         1 9LL       0.396300
     16 C14         -4.1050     1.9460     0.6800 cd         1 9LL       0.376200
     17 C19          1.8260    -2.4640    -0.2750 c          1 9LL       0.665100
     18 C23          3.7680    -4.6750    -3.3080 ca         1 9LL      -0.077000
     19 C25          3.0270    -2.6580    -2.2600 ca         1 9LL      -0.098300
     20 F06          0.7750    -0.6330     4.7740 f          1 9LL      -0.122900
     21 N11         -0.6730     1.1350     0.2740 ns         1 9LL      -0.060400
     22 N13         -2.8010     2.1450     0.6270 nd         1 9LL      -0.629000
     23 N18          1.9950    -1.1970    -0.6910 n          1 9LL      -0.145800
     24 O01          4.1740     0.6420     0.6730 oh         1 9LL      -0.489100
     25 O17         -0.6060    -1.0190    -0.2520 o          1 9LL      -0.564100
     26 O27          1.2390    -2.7900     0.7390 o          1 9LL      -0.648500
     27 S16         -3.0350    -0.2750     0.1680 ss         1 9LL      -0.211300
     28 H2           2.1080    -5.3820    -0.4530 ha         1 9LL       0.116000
     29 H3           3.2770    -6.5010    -2.3060 ha         1 9LL       0.107000
     30 H4           4.1210    -2.7120    -4.0920 ha         1 9LL       0.103000
     31 H5           3.6880    -0.6750    -1.8190 h1         1 9LL       0.025700
     32 H6           2.1670    -0.7620    -2.7380 h1         1 9LL       0.025700
     33 H7           4.8240     0.5720     3.2100 ha         1 9LL       0.116000
     34 H8           3.2930     0.0010     5.0540 ha         1 9LL       0.119000
     35 H9           0.1200    -0.5710     2.2460 ha         1 9LL       0.141000
     36 H10          1.8690     0.8840    -0.5110 h1         1 9LL       0.045700
     37 H11         -4.8120     2.7410     0.8870 h4         1 9LL      -0.001900
     38 H12          4.2820    -5.1740    -4.1210 ha         1 9LL       0.104000
     39 H13         -0.1790     2.0000     0.3640 hn         1 9LL       0.177500
     40 H14          4.7390     1.3470     0.9420 ho         1 9LL       0.407000
     41 H1          -5.5010     0.3180     0.4550 h4         1 9LL       0.159000
@<TRIPOS>BOND
     1     1    14 1   
     2     1    21 1   
     3     1    25 2   
     4     2    16 2   
     5     2    27 1   
     6     2    41 1   
     7     3     4 ar  
     8     3    17 1   
     9     3    19 ar  
    10     4     5 ar  
    11     4    28 1   
    12     5    18 ar  
    13     5    29 1   
    14     6    18 ar  
    15     6    19 ar  
    16     6    30 1   
    17     7    19 1   
    18     7    23 1   
    19     7    31 1   
    20     7    32 1   
    21     8     9 ar  
    22     8    13 ar  
    23     8    24 1   
    24     9    10 ar  
    25     9    33 1   
    26    10    11 ar  
    27    10    34 1   
    28    11    12 ar  
    29    11    20 1   
    30    12    13 ar  
    31    12    35 1   
    32    13    14 1   
    33    14    23 1   
    34    14    36 1   
    35    15    21 1   
    36    15    22 2   
    37    15    27 1   
    38    16    22 1   
    39    16    37 1   
    40    17    23 1   
    41    17    26 2   
    42    18    38 1   
    43    21    39 1   
    44    24    40 1   
@<TRIPOS>SUBSTRUCTURE
     1 9LL         1 TEMP              0 ****  ****    0 ROOT
