@<TRIPOS>MOLECULE
molecule
   52    55     1     0     0
SMALL
bcc


@<TRIPOS>ATOM
      1 C4           0.0000     0.0000     0.0000 cc         1 9LM      -0.038300
      2 C7           2.1810    -0.4330     4.0570 c3         1 9LM       0.230800
      3 C8           0.7820     0.0120     3.6140 c3         1 9LM      -0.020100
      4 C10         -0.8690     0.0030    -1.1960 ca         1 9LM      -0.011000
      5 C13         -2.4980     0.0110    -3.4360 ca         1 9LM      -0.128000
      6 C15         -2.2540     0.1130    -1.0560 ca         1 9LM      -0.123500
      7 C20          6.7430     0.1970     3.6690 cd         1 9LM      -0.025000
      8 C21          7.7390    -0.5560     4.2680 cd         1 9LM      -0.186000
      9 C22          7.4710    -0.9530     5.5130 cc         1 9LM      -0.041100
     10 C28          4.2170    -2.4720    -2.8820 c3         1 9LM      -0.112100
     11 C27          3.4240    -1.1650    -2.8250 c3         1 9LM       0.115700
     12 C29          2.5580    -1.0390    -4.0800 c3         1 9LM      -0.112100
     13 N26          2.5650    -1.1650    -1.6380 ns         1 9LM      -0.583900
     14 O25          2.5250     1.0530    -1.5830 o          1 9LM      -0.572100
     15 N5           1.3800     0.0000     0.0000 n          1 9LM      -0.047200
     16 C1           1.8070     0.0000     1.2950 cc         1 9LM      -0.105600
     17 C9           3.2320    -0.0080     1.7980 c3         1 9LM       0.310100
     18 N6           3.1880     0.2650     3.2450 n3         1 9LM      -0.814500
     19 C2           0.7250     0.0040     2.1070 cd         1 9LM      -0.140300
     20 C3          -0.4190     0.0010     1.2960 cd         1 9LM      -0.169000
     21 C11         -0.3090    -0.0980    -2.4700 ca         1 9LM      -0.123500
     22 C12         -1.1260    -0.0940    -3.5820 ca         1 9LM      -0.123500
     23 C14         -3.0590     0.1170    -2.1750 ca         1 9LM      -0.123500
     24 S16          4.2470     1.3320     3.9400 sy         1 9LM       1.448200
     25 O17          4.6720     2.2080     2.9040 o          1 9LM      -0.624300
     26 O18          3.6310     1.7860     5.1370 o          1 9LM      -0.624300
     27 C19          5.6690     0.4140     4.4290 cc         1 9LM      -0.272600
     28 S23          5.8830    -0.3660     5.9910 ss         1 9LM      -0.048800
     29 H1           2.2730    -1.4970     3.8700 h1         1 9LM       0.061700
     30 H2           2.3170    -0.1410     5.0910 h1         1 9LM       0.061700
     31 H3           0.0630    -0.7080     3.9850 hc         1 9LM       0.064200
     32 H4           0.6260     1.0280     3.9540 hc         1 9LM       0.064200
     33 H5          -3.1350     0.0140    -4.3120 ha         1 9LM       0.130000
     34 H6          -2.6950     0.1960    -0.0700 ha         1 9LM       0.139500
     35 H7           6.8310     0.5820     2.6600 ha         1 9LM       0.162000
     36 H8           8.6650    -0.8050     3.7640 ha         1 9LM       0.153000
     37 H9           8.1300    -1.5480     6.1340 h4         1 9LM       0.174000
     38 H10          4.8270    -2.5630    -1.9910 hc         1 9LM       0.046367
     39 H11          3.5310    -3.3080    -2.9380 hc         1 9LM       0.046367
     40 H12          4.8550    -2.4690    -3.7580 hc         1 9LM       0.046367
     41 H13          4.1100    -0.3280    -2.7740 h1         1 9LM       0.081700
     42 H14          1.7180    -1.7190    -4.0090 hc         1 9LM       0.046367
     43 H15          3.1500    -1.2850    -4.9540 hc         1 9LM       0.046367
     44 H16          2.1930    -0.0230    -4.1670 hc         1 9LM       0.046367
     45 H17          2.3010    -2.0320    -1.2130 hn         1 9LM       0.324500
     46 H18          3.8030     0.7640     1.2960 h1         1 9LM       0.067700
     47 H19          3.6790    -0.9790     1.6200 h1         1 9LM       0.067700
     48 H20         -1.4400     0.1290     1.6350 ha         1 9LM       0.156000
     49 H21          0.7650    -0.1800    -2.5870 ha         1 9LM       0.139500
     50 H22         -0.6930    -0.1740    -4.5710 ha         1 9LM       0.131000
     51 H23         -4.1340     0.2010    -2.0680 ha         1 9LM       0.131000
     52 C24          2.1690     0.0010    -1.0920 c          1 9LM       0.675900
@<TRIPOS>BOND
     1     5    23 ar
     2     5    22 ar
     3    23     6 ar
     4    22    21 ar
     5     6     4 ar
     6    21     4 ar
     7     4     1 1
     8    12    11 1
     9    10    11 1
    10    11    13 1
    11     1    20 2
    12     1    15 1
    13    13    52 1
    14    20    19 1
    15    52    15 1
    16    52    14 2
    17    15    16 1
    18    19    16 2
    19    19     3 1
    20    16    17 1
    21     3     2 1
    22    17    18 1
    23     2    18 1
    24    18    24 1
    25    25    24 2
    26    24    26 2
    27    24    27 1
    28    27     7 2
    29    27    28 1
    30     7     8 1
    31    28     9 1
    32     8     9 2
    33     2    29 1
    34     2    30 1
    35     3    31 1
    36     3    32 1
    37     5    33 1
    38     6    34 1
    39     7    35 1
    40     8    36 1
    41     9    37 1
    42    10    38 1
    43    10    39 1
    44    10    40 1
    45    11    41 1
    46    12    42 1
    47    12    43 1
    48    12    44 1
    49    13    45 1
    50    17    46 1
    51    17    47 1
    52    20    48 1
    53    21    49 1
    54    22    50 1
    55    23    51 1
@<TRIPOS>SUBSTRUCTURE
     1 9LM         1 TEMP              0 ****  ****    0 ROOT
