@<TRIPOS>MOLECULE
9LM
   52    55     1     0     0
SMALL
bcc


@<TRIPOS>ATOM
      1 C4           0.0000     0.0000     0.0000 cc         1 9LM      -0.224300
      2 C7           2.1810    -0.4330     4.0570 c3         1 9LM       0.227800
      3 C8           0.7820     0.0120     3.6140 c3         1 9LM       0.050900
      4 C10         -0.8690     0.0030    -1.1960 ca         1 9LM       0.015000
      5 C13         -2.4980     0.0110    -3.4360 ca         1 9LM      -0.107000
      6 C15         -2.2540     0.1130    -1.0560 ca         1 9LM      -0.122000
      7 C20          6.7430     0.1970     3.6690 cc         1 9LM       0.006000
      8 C21          7.7390    -0.5560     4.2680 cc         1 9LM      -0.164000
      9 C22          7.4710    -0.9530     5.5130 cd         1 9LM       0.044900
     10 C28          4.2170    -2.4720    -2.8820 c3         1 9LM      -0.016600
     11 C27          3.4240    -1.1650    -2.8250 c3         1 9LM       0.018700
     12 C29          2.5580    -1.0390    -4.0800 c3         1 9LM      -0.016600
     13 N26          2.5650    -1.1650    -1.6380 ns         1 9LM      -0.192900
     14 O25          2.5250     1.0530    -1.5830 o          1 9LM      -0.610100
     15 N5           1.3800     0.0000     0.0000 n          1 9LM       0.462800
     16 C1           1.8070     0.0000     1.2950 cc         1 9LM      -0.307600
     17 C9           3.2320    -0.0080     1.7980 c3         1 9LM       0.337100
     18 N6           3.1880     0.2650     3.2450 n3         1 9LM      -0.524500
     19 C2           0.7250     0.0040     2.1070 cd         1 9LM      -0.144300
     20 C3          -0.4190     0.0010     1.2960 cd         1 9LM      -0.141000
     21 C11         -0.3090    -0.0980    -2.4700 ca         1 9LM      -0.122000
     22 C12         -1.1260    -0.0940    -3.5820 ca         1 9LM      -0.089000
     23 C14         -3.0590     0.1170    -2.1750 ca         1 9LM      -0.089000
     24 S16          4.2470     1.3320     3.9400 sy         1 9LM       1.075200
     25 O17          4.6720     2.2080     2.9040 o          1 9LM      -0.571300
     26 O18          3.6310     1.7860     5.1370 o          1 9LM      -0.571300
     27 C19          5.6690     0.4140     4.4290 cd         1 9LM      -0.054600
     28 S23          5.8830    -0.3660     5.9910 ss         1 9LM      -0.194800
     29 H1           2.2730    -1.4970     3.8700 h1         1 9LM       0.028200
     30 H2           2.3170    -0.1410     5.0910 h1         1 9LM       0.028200
     31 H3           0.0630    -0.7080     3.9850 hc         1 9LM       0.029700
     32 H4           0.6260     1.0280     3.9540 hc         1 9LM       0.029700
     33 H5          -3.1350     0.0140    -4.3120 ha         1 9LM       0.102000
     34 H6          -2.6950     0.1960    -0.0700 ha         1 9LM       0.118500
     35 H7           6.8310     0.5820     2.6600 ha         1 9LM       0.131000
     36 H8           8.6650    -0.8050     3.7640 ha         1 9LM       0.125000
     37 H9           8.1300    -1.5480     6.1340 h4         1 9LM       0.147000
     38 H10          4.8270    -2.5630    -1.9910 hc         1 9LM       0.014700
     39 H11          3.5310    -3.3080    -2.9380 hc         1 9LM       0.014700
     40 H12          4.8550    -2.4690    -3.7580 hc         1 9LM       0.014700
     41 H13          4.1100    -0.3280    -2.7740 h1         1 9LM       0.058700
     42 H14          1.7180    -1.7190    -4.0090 hc         1 9LM       0.014700
     43 H15          3.1500    -1.2850    -4.9540 hc         1 9LM       0.014700
     44 H16          2.1930    -0.0230    -4.1670 hc         1 9LM       0.014700
     45 H17          2.3010    -2.0320    -1.2130 hn         1 9LM       0.183500
     46 H18          3.8030     0.7640     1.2960 h1         1 9LM       0.025200
     47 H19          3.6790    -0.9790     1.6200 h1         1 9LM       0.025200
     48 H20         -1.4400     0.1290     1.6350 ha         1 9LM       0.132000
     49 H21          0.7650    -0.1800    -2.5870 ha         1 9LM       0.118500
     50 H22         -0.6930    -0.1740    -4.5710 ha         1 9LM       0.101500
     51 H23         -4.1340     0.2010    -2.0680 ha         1 9LM       0.101500
     52 C24          2.1690     0.0010    -1.0920 c          1 9LM       0.450900
@<TRIPOS>BOND
     1     1     4 1   
     2     1    15 1   
     3     1    20 2   
     4     2     3 1   
     5     2    18 1   
     6     2    29 1   
     7     2    30 1   
     8     3    19 1   
     9     3    31 1   
    10     3    32 1   
    11     4     6 ar  
    12     4    21 ar  
    13     5    22 ar  
    14     5    23 ar  
    15     5    33 1   
    16     6    23 ar  
    17     6    34 1   
    18     7     8 1   
    19     7    27 2   
    20     7    35 1   
    21     8     9 2   
    22     8    36 1   
    23     9    28 1   
    24     9    37 1   
    25    10    11 1   
    26    10    38 1   
    27    10    39 1   
    28    10    40 1   
    29    11    12 1   
    30    11    13 1   
    31    11    41 1   
    32    12    42 1   
    33    12    43 1   
    34    12    44 1   
    35    13    45 1   
    36    13    52 1   
    37    14    52 2   
    38    15    16 1   
    39    15    52 1   
    40    16    17 1   
    41    16    19 2   
    42    17    18 1   
    43    17    46 1   
    44    17    47 1   
    45    18    24 1   
    46    19    20 1   
    47    20    48 1   
    48    21    22 ar  
    49    21    49 1   
    50    22    50 1   
    51    23    51 1   
    52    24    25 2   
    53    24    26 2   
    54    24    27 1   
    55    27    28 1   
@<TRIPOS>SUBSTRUCTURE
     1 9LM         1 TEMP              0 ****  ****    0 ROOT
