@<TRIPOS>MOLECULE
9LN
   51    54     1     0     0
SMALL
bcc


@<TRIPOS>ATOM
      1 CAA          0.0000     0.0000     0.0000 c3         1 9LN      -0.015100
      2 CAB          2.0350    -3.2850     6.4260 c3         1 9LN       0.063300
      3 CAF         10.2380    -1.5380     9.9400 ca         1 9LN      -0.101000
      4 CAG          9.8420    -2.8520    10.1070 ca         1 9LN      -0.083000
      5 CAH          9.3160    -0.5760     9.5700 ca         1 9LN      -0.083000
      6 CAI          8.5240    -3.2080     9.9030 ca         1 9LN      -0.104500
      7 CAJ          7.9970    -0.9270     9.3580 ca         1 9LN      -0.104500
      8 CAK          2.2450     0.0450     4.1190 ca         1 9LN      -0.030000
      9 CAL          2.0170     0.0000     2.7640 ca         1 9LN      -0.137000
     10 CAM          4.4380    -3.8280     9.1860 cc         1 9LN       0.407200
     11 CAN          2.9420    -2.2710     4.0820 ca         1 9LN      -0.111000
     12 CAO          5.2560    -1.7700     8.9600 cd         1 9LN      -0.232300
     13 CAP          1.5300     0.0000     0.0000 c3         1 9LN       0.017000
     14 CAQ          2.7610    -1.9840     8.4800 c3         1 9LN       0.163300
     15 CAU          4.1220    -2.5030     8.8650 cc         1 9LN      -0.361600
     16 CAV          2.7120    -1.0910     4.7890 ca         1 9LN      -0.140600
     17 CAW          7.5950    -2.2450     9.5300 ca         1 9LN      -0.149200
     18 CAX          2.7410    -3.5450     0.6840 c          1 9LN       0.523500
     19 CAY          2.2430    -2.3290    -0.0220 c          1 9LN       0.534500
     20 CAZ          2.7160    -2.3120     2.7150 ca         1 9LN      -0.129400
     21 CBA          2.2500    -1.1740     2.0510 ca         1 9LN      -0.084400
     22 NAR          5.7150    -3.8880     9.4640 nd         1 9LN      -0.664800
     23 NAS          2.9460    -3.4960     2.0160 ns         1 9LN      -0.005100
     24 NBB          2.5970    -2.0730     7.0270 n          1 9LN      -0.147800
     25 NBC          6.2560    -2.6040     9.3220 na         1 9LN       0.636300
     26 NBD          2.0180    -1.2010     0.6820 n          1 9LN       0.038000
     27 OAC          3.5000    -0.0650     6.7330 o          1 9LN      -0.649100
     28 OAE          2.0420    -2.3550    -1.2190 o          1 9LN      -0.604500
     29 H1          -0.3610    -0.2890    -0.9790 hc         1 9LN       0.013700
     30 H2          -0.3610    -0.7040     0.7400 hc         1 9LN       0.013700
     31 H3          -0.3610     0.9930     0.2390 hc         1 9LN       0.013700
     32 H4           1.4760    -3.8330     7.1750 h1         1 9LN       0.014700
     33 H5           1.3750    -3.0120     5.6120 h1         1 9LN       0.014700
     34 H6           2.8380    -3.9060     6.0480 h1         1 9LN       0.014700
     35 H8          10.5670    -3.6030    10.3970 ha         1 9LN       0.107500
     36 H9           9.6300     0.4520     9.4380 ha         1 9LN       0.107500
     37 H10          8.2130    -4.2380    10.0360 ha         1 9LN       0.125500
     38 H11          7.2750    -0.1740     9.0680 ha         1 9LN       0.125500
     39 H12          2.0670     0.9620     4.6670 ha         1 9LN       0.124000
     40 H13          1.6550     0.8810     2.2490 ha         1 9LN       0.128000
     41 H14          3.7440    -4.6600     9.2040 h4         1 9LN       0.002100
     42 H15          3.3040    -3.1510     4.5990 ha         1 9LN       0.133000
     43 H16          5.3470    -0.7070     8.7730 h4         1 9LN       0.168000
     44 H17          1.8910     0.0070    -1.0210 h1         1 9LN       0.044200
     45 H18          1.8910     0.8810     0.5170 h1         1 9LN       0.044200
     46 H19          1.9970    -2.5780     8.9660 h1         1 9LN       0.031700
     47 H20          2.6670    -0.9510     8.7910 h1         1 9LN       0.031700
     48 H21          3.2800    -4.3050     2.5010 hn         1 9LN       0.183500
     49 OAD          2.9410    -4.5720     0.0700 o          1 9LN      -0.606500
     50 CAT          2.9630    -1.0400     6.2430 c          1 9LN       0.613700
     51 H7          11.2730    -1.2610    10.1030 ha         1 9LN       0.106000
@<TRIPOS>BOND
     1     1    13 1   
     2     1    29 1   
     3     1    30 1   
     4     1    31 1   
     5     2    24 1   
     6     2    32 1   
     7     2    33 1   
     8     2    34 1   
     9     3     4 ar  
    10     3     5 ar  
    11     3    51 1   
    12     4     6 ar  
    13     4    35 1   
    14     5     7 ar  
    15     5    36 1   
    16     6    17 ar  
    17     6    37 1   
    18     7    17 ar  
    19     7    38 1   
    20     8     9 ar  
    21     8    16 ar  
    22     8    39 1   
    23     9    21 ar  
    24     9    40 1   
    25    10    15 1   
    26    10    22 2   
    27    10    41 1   
    28    11    16 ar  
    29    11    20 ar  
    30    11    42 1   
    31    12    15 2   
    32    12    25 1   
    33    12    43 1   
    34    13    26 1   
    35    13    44 1   
    36    13    45 1   
    37    14    15 1   
    38    14    24 1   
    39    14    46 1   
    40    14    47 1   
    41    16    50 1   
    42    17    25 1   
    43    18    19 1   
    44    18    23 1   
    45    18    49 2   
    46    19    26 1   
    47    19    28 2   
    48    20    21 ar  
    49    20    23 1   
    50    21    26 1   
    51    22    25 1   
    52    23    48 1   
    53    24    50 1   
    54    27    50 2   
@<TRIPOS>SUBSTRUCTURE
     1 9LN         1 TEMP              0 ****  ****    0 ROOT
