@<TRIPOS>MOLECULE
molecule
   35    36     1     0     0
SMALL
bcc


@<TRIPOS>ATOM
      1 N2A          0.0000     0.0000     0.0000 nz         1 9LO      -0.718600
      2 N1           2.0150     0.0000     1.1480 nc         1 9LO      -0.611300
      3 C2           1.3710     0.0000     0.0000 cd         1 9LO       0.432800
      4 N3           2.0360     0.0000    -1.1870 ns         1 9LO      -0.460400
      5 C4           3.3850     0.0000    -1.2100 c          1 9LO       0.699700
      6 O4A          3.9900    -0.0000    -2.2700 o          1 9LO      -0.483500
      7 C5           4.0810     0.0000     0.0080 cd         1 9LO       0.010400
      8 C6           3.3530     0.0010     1.1920 cc         1 9LO       0.075600
      9 N7           4.0070    -0.0000     2.4110 nz         1 9LO      -0.632400
     10 O8A          5.5810    -1.8480    -1.1990 o          1 9LO      -0.584100
     11 N9           7.5180    -1.0500    -0.4590 ns         1 9LO      -0.449100
     12 C1B          8.2160    -2.1370    -0.9830 ca         1 9LO       0.023600
     13 C2B          9.4900    -1.9550    -1.5100 ca         1 9LO      -0.155500
     14 C3B         10.1820    -3.0260    -2.0280 ca         1 9LO      -0.066000
     15 C4B          9.6010    -4.2980    -2.0250 ca         1 9LO      -0.100600
     16 C5B          8.3210    -4.4780    -1.4950 ca         1 9LO      -0.066000
     17 C6B          7.6370    -3.4030    -0.9730 ca         1 9LO      -0.155500
     18 C7B         10.3400    -5.4480    -2.5810 c          1 9LO       0.876200
     19 O7B         11.4530    -5.2900    -3.0410 o          1 9LO      -0.662300
     20 CAW          6.1750    -0.9970    -0.5650 c          1 9LO       0.760100
     21 H2A1        -0.3340    -0.8200    -0.4660 hn         1 9LO       0.477133
     22 H2A2        -0.3340     0.8140    -0.4770 hn         1 9LO       0.477133
     23 H71N         4.6340    -0.7790     2.4530 hn         1 9LO       0.467133
     24 H72N         4.5250     0.8510     2.5130 hn         1 9LO       0.467133
     25 H9           8.0110    -0.3240     0.0220 hn         1 9LO       0.316500
     26 H2B          9.9390    -0.9700    -1.5120 ha         1 9LO       0.131500
     27 H6B          6.6440    -3.5420    -0.5620 ha         1 9LO       0.131500
     28 H3B         11.1750    -2.8840    -2.4380 ha         1 9LO       0.169500
     29 H5B          7.8690    -5.4630    -1.4900 ha         1 9LO       0.169500
     30 H5A          5.9850     0.7640     0.4510 hn         1 9LO       0.328500
     31 HN3          1.5230     0.0010    -2.0470 hn         1 9LO       0.360500
     32 OXT          9.7790    -6.6730    -2.5760 o          1 9LO      -0.662300
     33 N5A          5.4910    -0.0000     0.0320 ns         1 9LO      -0.513100
     34 H2A3        -0.3340     0.0060     0.9440 hn         1 9LO       0.477133
     35 H73          3.3360    -0.0720     3.1500 hn         1 9LO       0.467133
@<TRIPOS>BOND
     1     1     3 1
     2     2     3 2
     3     2     8 1
     4     3     4 1
     5     4     5 1
     6     5     6 2
     7     5     7 1
     8    33     7 1
     9    33    20 1
    10     7     8 2
    11     8     9 1
    12    10    20 2
    13    11    12 1
    14    11    20 1
    15    12    13 ar
    16    12    17 ar
    17    13    14 ar
    18    14    15 ar
    19    15    16 ar
    20    15    18 1
    21    16    17 ar
    22    18    19 1
    23     1    21 1
    24     1    22 1
    25     9    23 1
    26     9    24 1
    27    11    25 1
    28    13    26 1
    29    17    27 1
    30    14    28 1
    31    16    29 1
    32    33    30 1
    33     4    31 1
    34    18    32 1
    35    34     1 1
    36    35     9 1
@<TRIPOS>SUBSTRUCTURE
     1 9LO         1 TEMP              0 ****  ****    0 ROOT
