@<TRIPOS>MOLECULE
9LP
   68    72     1     0     0
SMALL
bcc


@<TRIPOS>ATOM
      1 C4           0.0000     0.0000     0.0000 c3         1 9LP      -0.069900
      2 C5           1.5300     0.0000     0.0000 c3         1 9LP      -0.069700
      3 C6           2.0390     0.0000     1.4430 c3         1 9LP      -0.069900
      4 C7           2.0400    -1.2490    -0.7210 c3         1 9LP      -0.151000
      5 C8           1.4160    -1.3270    -2.0920 c          1 9LP       0.552100
      6 C13          4.3170    -2.1430    -1.3690 cc         1 9LP       0.313400
      7 C15          6.4110     1.6100     0.0490 ca         1 9LP       0.057900
      8 C17          4.0560     1.1220     0.0970 ca         1 9LP      -0.154000
      9 C20          4.6930    -4.1990    -2.7270 ca         1 9LP      -0.087500
     10 C21          4.2680    -5.4210    -3.2020 ca         1 9LP      -0.094500
     11 C22          3.0190    -5.9060    -2.8550 ca         1 9LP      -0.025600
     12 C24          2.6060    -3.9470    -1.5410 ca         1 9LP      -0.087500
     13 C1           1.5300     1.2490     2.1640 c3         1 9LP      -0.020400
     14 C2          -0.0010     1.2470     2.1640 c3         1 9LP      -0.027400
     15 C3          -0.5100     1.2480     0.7220 c3         1 9LP      -0.020400
     16 O10          2.1030    -1.1710    -3.0800 o          1 9LP      -0.626100
     17 N28          0.0970    -1.5710    -2.2180 ns         1 9LP      -0.184900
     18 C29         -0.5250    -1.5600    -3.5450 c3         1 9LP       0.003700
     19 C30         -0.9030    -0.1250    -3.9180 c3         1 9LP      -0.031900
     20 C31         -1.5540    -0.1140    -5.3030 c3         1 9LP      -0.052900
     21 C32         -2.8120    -0.9840    -5.2830 c3         1 9LP       0.246100
     22 C33         -2.4340    -2.4190    -4.9090 c3         1 9LP      -0.052900
     23 C34         -1.7840    -2.4310    -3.5240 c3         1 9LP      -0.031900
     24 O35         -3.4190    -0.9740    -6.5760 os         1 9LP      -0.492500
     25 S36         -4.9400    -1.0240    -6.5460 s6         1 9LP       1.328300
     26 O37         -5.4290     0.3540    -6.1280 o          1 9LP      -0.683200
     27 O38         -5.3620    -1.2090    -7.8910 o          1 9LP      -0.683200
     28 O39         -5.2910    -1.9120    -5.4930 o          1 9LP      -0.683200
     29 N9           3.4980    -1.1760    -0.8510 na         1 9LP       0.364700
     30 C12          4.3020    -0.1180    -0.4760 ca         1 9LP      -0.242200
     31 C11          5.6200    -0.4970    -0.7900 ca         1 9LP       0.078400
     32 N14          5.5620    -1.7380    -1.3300 nd         1 9LP      -0.520100
     33 C19          3.8640    -3.4530    -1.8880 ca         1 9LP      -0.080900
     34 C23          2.1890    -5.1690    -2.0280 ca         1 9LP      -0.094500
     35 C18          6.6730     0.3840    -0.5200 ca         1 9LP      -0.054000
     36 C16          5.1050     1.9800     0.3570 ca         1 9LP       0.083900
     37 F26          4.8630     3.1860     0.9160 f          1 9LP      -0.122900
     38 F27          7.4280     2.4600     0.3110 f          1 9LP      -0.122900
     39 H1          -0.3600    -0.8840     0.5120 hc         1 9LP       0.036700
     40 H2          -0.3600     0.0030    -1.0220 hc         1 9LP       0.036700
     41 H3           1.8890     0.8870    -0.5070 hc         1 9LP       0.069700
     42 H4           3.1230     0.0020     1.4420 hc         1 9LP       0.036700
     43 H5           1.6750    -0.8840     1.9530 hc         1 9LP       0.036700
     44 H6           1.7710    -2.1300    -0.1510 h1         1 9LP       0.065700
     45 H7           3.0420     1.4160     0.3390 ha         1 9LP       0.172000
     46 H9           4.9120    -6.0020    -3.8510 ha         1 9LP       0.115000
     47 H10          1.9560    -3.3700    -0.8940 ha         1 9LP       0.122000
     48 H11          1.8900     1.2470     3.1850 hc         1 9LP       0.020700
     49 H12          1.8890     2.1330     1.6500 hc         1 9LP       0.020700
     50 H13         -0.3600     0.3610     2.6720 hc         1 9LP       0.015200
     51 H14         -0.3610     2.1330     2.6740 hc         1 9LP       0.015200
     52 H15         -1.5930     1.2460     0.7230 hc         1 9LP       0.020700
     53 H16         -0.1460     2.1320     0.2130 hc         1 9LP       0.020700
     54 H17         -0.4440    -1.8250    -1.4150 hn         1 9LP       0.185500
     55 H18          0.1700    -1.9510    -4.2780 h1         1 9LP       0.061700
     56 H19         -1.6030     0.2640    -3.1890 hc         1 9LP       0.013200
     57 H20         -0.0110     0.4890    -3.9350 hc         1 9LP       0.013200
     58 H21         -0.8550    -0.5080    -6.0310 hc         1 9LP       0.033200
     59 H22         -1.8230     0.9020    -5.5650 hc         1 9LP       0.033200
     60 H23         -3.5060    -0.5930    -4.5500 h1         1 9LP       0.039700
     61 H24         -3.3260    -3.0330    -4.8930 hc         1 9LP       0.033200
     62 H25         -1.7340    -2.8080    -5.6390 hc         1 9LP       0.033200
     63 H26         -2.4820    -2.0370    -2.7960 hc         1 9LP       0.013200
     64 H27         -1.5140    -3.4470    -3.2620 hc         1 9LP       0.013200
     65 H28          1.2130    -5.5530    -1.7590 ha         1 9LP       0.115000
     66 H29          7.6920     0.1020    -0.7580 ha         1 9LP       0.126000
     67 Cl25         2.4910    -7.4470    -3.4570 cl         1 9LP      -0.029400
     68 H8           5.6710    -3.8200    -2.9990 ha         1 9LP       0.122000
@<TRIPOS>BOND
     1     1     2 1   
     2     1    15 1   
     3     1    39 1   
     4     1    40 1   
     5     2     3 1   
     6     2     4 1   
     7     2    41 1   
     8     3    13 1   
     9     3    42 1   
    10     3    43 1   
    11     4     5 1   
    12     4    29 1   
    13     4    44 1   
    14     5    16 2   
    15     5    17 1   
    16     6    29 1   
    17     6    32 2   
    18     6    33 1   
    19     7    35 ar  
    20     7    36 ar  
    21     7    38 1   
    22     8    30 ar  
    23     8    36 ar  
    24     8    45 1   
    25     9    10 ar  
    26     9    33 ar  
    27     9    68 1   
    28    10    11 ar  
    29    10    46 1   
    30    11    34 ar  
    31    11    67 1   
    32    12    33 ar  
    33    12    34 ar  
    34    12    47 1   
    35    13    14 1   
    36    13    48 1   
    37    13    49 1   
    38    14    15 1   
    39    14    50 1   
    40    14    51 1   
    41    15    52 1   
    42    15    53 1   
    43    17    18 1   
    44    17    54 1   
    45    18    19 1   
    46    18    23 1   
    47    18    55 1   
    48    19    20 1   
    49    19    56 1   
    50    19    57 1   
    51    20    21 1   
    52    20    58 1   
    53    20    59 1   
    54    21    22 1   
    55    21    24 1   
    56    21    60 1   
    57    22    23 1   
    58    22    61 1   
    59    22    62 1   
    60    23    63 1   
    61    23    64 1   
    62    24    25 1   
    63    25    26 1   
    64    25    27 1   
    65    25    28 1   
    66    29    30 1   
    67    30    31 ar  
    68    31    32 1   
    69    31    35 ar  
    70    34    65 1   
    71    35    66 1   
    72    36    37 1   
@<TRIPOS>SUBSTRUCTURE
     1 9LP         1 TEMP              0 ****  ****    0 ROOT
