@<TRIPOS>MOLECULE
molecule
   58    62     1     0     0
SMALL
bcc


@<TRIPOS>ATOM
      1 N1           0.0000     0.0000     0.0000 na         1 9LS      -0.127300
      2 N3           0.6430     0.0000     2.0960 nc         1 9LS      -0.591100
      3 C4           1.3820     0.0000     0.0000 ca         1 9LS      -0.074200
      4 C5           1.7750     0.0000     1.3500 ca         1 9LS       0.109400
      5 C6          -1.6520    -1.2870    -1.2260 c          1 9LS       0.633100
      6 C7          -0.8690    -0.0000    -1.1790 c3         1 9LS      -0.021000
      7 C8           2.3430    -0.0010    -1.0010 ca         1 9LS      -0.171000
      8 C10          3.1360     0.0030     1.6720 ca         1 9LS      -0.092000
      9 C13          4.0760     0.0010     0.6660 ca         1 9LS       0.085900
     10 C17         -0.0170     0.1250    -2.4430 c3         1 9LS      -0.090700
     11 C22         -4.4470    -0.0060     2.6150 ca         1 9LS       0.038400
     12 C24         -3.4400    -0.3920     3.4860 ca         1 9LS      -0.122000
     13 C28         -4.8600    -4.4430    -2.8820 ca         1 9LS      -0.160000
     14 C16         -4.1490    -3.2600    -2.9680 ca         1 9LS       0.107900
     15 C32         -4.7730    -5.2220    -1.7430 ca         1 9LS      -0.111000
     16 C31         -3.9750    -4.8220    -0.6880 ca         1 9LS      -0.132000
     17 C27         -3.2610    -3.6420    -0.7660 ca         1 9LS      -0.088000
     18 C14         -3.3410    -2.8600    -1.9100 ca         1 9LS       0.035600
     19 O15         -1.3840    -2.1880    -0.4580 o          1 9LS      -0.585100
     20 C29         -0.9040    -0.0460    -3.6760 c3         1 9LS      -0.098400
     21 C33         -0.0510     0.0790    -4.9400 c3         1 9LS      -0.077400
     22 C35          0.6120     1.4570    -4.9740 c3         1 9LS      -0.083400
     23 C34          1.4990     1.6280    -3.7410 c3         1 9LS      -0.077400
     24 C30          0.6460     1.5030    -2.4770 c3         1 9LS      -0.098400
     25 C2          -0.4050    -0.0040     1.3080 cd         1 9LS       0.503400
     26 F21          5.3920     0.0050     0.9770 f          1 9LS      -0.128900
     27 C11          3.6830    -0.0020    -0.6690 ca         1 9LS       0.107900
     28 F20          4.6170    -0.0040    -1.6450 f          1 9LS      -0.127900
     29 C12         -1.8110    -0.0060     1.7640 ca         1 9LS      -0.091900
     30 C18         -2.8300     0.3830     0.8920 ca         1 9LS      -0.100000
     31 C25         -4.1400     0.3810     1.3220 ca         1 9LS      -0.122000
     32 C19         -2.1260    -0.3930     3.0670 ca         1 9LS      -0.100000
     33 H1          -1.5550     0.8370    -1.1220 h1         1 9LS       0.084700
     34 H2           2.0420    -0.0040    -2.0420 ha         1 9LS       0.172000
     35 H3           3.4480    -0.0840     2.7060 ha         1 9LS       0.165000
     36 H4           0.7490    -0.6410    -2.4430 hc         1 9LS       0.087700
     37 H5          -3.6850    -0.6930     4.4970 ha         1 9LS       0.148500
     38 H7          -5.3320    -6.1480    -1.6780 ha         1 9LS       0.140000
     39 H8          -3.9110    -5.4350     0.2030 ha         1 9LS       0.145000
     40 H9          -2.6340    -3.3320     0.0610 ha         1 9LS       0.198000
     41 H11         -1.6670     0.7230    -3.6800 hc         1 9LS       0.055450
     42 H12         -1.3700    -1.0240    -3.6520 hc         1 9LS       0.055450
     43 H13          0.7150    -0.6880    -4.9350 hc         1 9LS       0.049700
     44 H14         -0.6810    -0.0390    -5.8130 hc         1 9LS       0.049700
     45 H15          1.2180     1.5430    -5.8680 hc         1 9LS       0.045700
     46 H16         -0.1530     2.2240    -4.9760 hc         1 9LS       0.045700
     47 H17          1.9650     2.6060    -3.7650 hc         1 9LS       0.049700
     48 H18          2.2620     0.8590    -3.7370 hc         1 9LS       0.049700
     49 H19         -0.1200     2.2700    -2.4830 hc         1 9LS       0.055450
     50 H20          1.2760     1.6210    -1.6040 hc         1 9LS       0.055450
     51 H21         -2.5920     0.6860    -0.1200 ha         1 9LS       0.150000
     52 H22         -4.9310     0.6820     0.6460 ha         1 9LS       0.148500
     53 H23         -1.3390    -0.6950     3.7480 ha         1 9LS       0.150000
     54 N9          -2.6490    -1.4380    -2.1210 ns         1 9LS      -0.514100
     55 Cl26        -6.0990    -0.0140     3.1490 cl         1 9LS      -0.102400
     56 H6          -5.4870    -4.7580    -3.7080 ha         1 9LS       0.149000
     57 F23         -4.2380    -2.4960    -4.0790 f          1 9LS      -0.144900
     58 H10         -2.8710    -0.6930    -2.7510 hn         1 9LS       0.357500
@<TRIPOS>BOND
     1    15    13 ar
     2    15    16 ar
     3    13    14 ar
     4    16    17 ar
     5    31    30 ar
     6    31    11 ar
     7    14    57 1
     8    14    18 ar
     9    30    29 ar
    10    17    18 ar
    11    18    54 1
    12     2     4 1
    13     2    25 2
    14    55    11 1
    15     8     4 ar
    16     8     9 ar
    17    11    12 ar
    18    26     9 1
    19     4     3 ar
    20    29    25 1
    21    29    32 ar
    22    25     1 1
    23    54     5 1
    24     9    27 ar
    25    12    32 ar
    26     3     1 1
    27     3     7 ar
    28     1     6 1
    29    27     7 ar
    30    27    28 1
    31     5     6 1
    32     5    19 2
    33     6    10 1
    34    10    24 1
    35    10    20 1
    36    24    23 1
    37    20    21 1
    38    23    22 1
    39    21    22 1
    40     6    33 1
    41     7    34 1
    42     8    35 1
    43    10    36 1
    44    12    37 1
    45    13    56 1
    46    15    38 1
    47    16    39 1
    48    17    40 1
    49    54    58 1
    50    20    41 1
    51    20    42 1
    52    21    43 1
    53    21    44 1
    54    22    45 1
    55    22    46 1
    56    23    47 1
    57    23    48 1
    58    24    49 1
    59    24    50 1
    60    30    51 1
    61    31    52 1
    62    32    53 1
@<TRIPOS>SUBSTRUCTURE
     1 9LS         1 TEMP              0 ****  ****    0 ROOT
