@<TRIPOS>MOLECULE
9LS
   58    62     1     0     0
SMALL
bcc


@<TRIPOS>ATOM
      1 N1           0.0000     0.0000     0.0000 na         1 9LS       0.353700
      2 N3           0.6430     0.0000     2.0960 nc         1 9LS      -0.508100
      3 C4           1.3820     0.0000     0.0000 ca         1 9LS      -0.241200
      4 C5           1.7750     0.0000     1.3500 ca         1 9LS       0.079400
      5 C6          -1.6520    -1.2870    -1.2260 c          1 9LS       0.556100
      6 C7          -0.8690    -0.0000    -1.1790 c3         1 9LS      -0.152000
      7 C8           2.3430    -0.0010    -1.0010 ca         1 9LS      -0.160000
      8 C10          3.1360     0.0030     1.6720 ca         1 9LS      -0.049000
      9 C13          4.0760     0.0010     0.6660 ca         1 9LS       0.063900
     10 C17         -0.0170     0.1250    -2.4430 c3         1 9LS      -0.073700
     11 C22         -4.4470    -0.0060     2.6150 ca         1 9LS      -0.029600
     12 C24         -3.4400    -0.3920     3.4860 ca         1 9LS      -0.094000
     13 C28         -4.8600    -4.4430    -2.8820 ca         1 9LS      -0.125000
     14 C16         -4.1490    -3.2600    -2.9680 ca         1 9LS       0.072900
     15 C32         -4.7730    -5.2220    -1.7430 ca         1 9LS      -0.078000
     16 C31         -3.9750    -4.8220    -0.6880 ca         1 9LS      -0.099000
     17 C27         -3.2610    -3.6420    -0.7660 ca         1 9LS      -0.073000
     18 C14         -3.3410    -2.8600    -1.9100 ca         1 9LS      -0.078400
     19 O15         -1.3840    -2.1880    -0.4580 o          1 9LS      -0.623100
     20 C29         -0.9040    -0.0460    -3.6760 c3         1 9LS      -0.064900
     21 C33         -0.0510     0.0790    -4.9400 c3         1 9LS      -0.019900
     22 C35          0.6120     1.4570    -4.9740 c3         1 9LS      -0.027400
     23 C34          1.4990     1.6280    -3.7410 c3         1 9LS      -0.019900
     24 C30          0.6460     1.5030    -2.4770 c3         1 9LS      -0.064900
     25 C2          -0.4050    -0.0040     1.3080 cd         1 9LS       0.305400
     26 F21          5.3920     0.0050     0.9770 f          1 9LS      -0.118900
     27 C11          3.6830    -0.0020    -0.6690 ca         1 9LS       0.093900
     28 F20          4.6170    -0.0040    -1.6450 f          1 9LS      -0.118900
     29 C12         -1.8110    -0.0060     1.7640 ca         1 9LS      -0.082900
     30 C18         -2.8300     0.3830     0.8920 ca         1 9LS      -0.091500
     31 C25         -4.1400     0.3810     1.3220 ca         1 9LS      -0.094000
     32 C19         -2.1260    -0.3930     3.0670 ca         1 9LS      -0.091500
     33 H1          -1.5550     0.8370    -1.1220 h1         1 9LS       0.070700
     34 H2           2.0420    -0.0040    -2.0420 ha         1 9LS       0.167000
     35 H3           3.4480    -0.0840     2.7060 ha         1 9LS       0.131000
     36 H4           0.7490    -0.6410    -2.4430 hc         1 9LS       0.072700
     37 H5          -3.6850    -0.6930     4.4970 ha         1 9LS       0.116500
     38 H7          -5.3320    -6.1480    -1.6780 ha         1 9LS       0.109000
     39 H8          -3.9110    -5.4350     0.2030 ha         1 9LS       0.113000
     40 H9          -2.6340    -3.3320     0.0610 ha         1 9LS       0.177000
     41 H11         -1.6670     0.7230    -3.6800 hc         1 9LS       0.033950
     42 H12         -1.3700    -1.0240    -3.6520 hc         1 9LS       0.033950
     43 H13          0.7150    -0.6880    -4.9350 hc         1 9LS       0.022200
     44 H14         -0.6810    -0.0390    -5.8130 hc         1 9LS       0.022200
     45 H15          1.2180     1.5430    -5.8680 hc         1 9LS       0.018200
     46 H16         -0.1530     2.2240    -4.9760 hc         1 9LS       0.018200
     47 H17          1.9650     2.6060    -3.7650 hc         1 9LS       0.022200
     48 H18          2.2620     0.8590    -3.7370 hc         1 9LS       0.022200
     49 H19         -0.1200     2.2700    -2.4830 hc         1 9LS       0.033950
     50 H20          1.2760     1.6210    -1.6040 hc         1 9LS       0.033950
     51 H21         -2.5920     0.6860    -0.1200 ha         1 9LS       0.122000
     52 H22         -4.9310     0.6820     0.6460 ha         1 9LS       0.116500
     53 H23         -1.3390    -0.6950     3.7480 ha         1 9LS       0.122000
     54 N9          -2.6490    -1.4380    -2.1210 ns         1 9LS      -0.112100
     55 Cl26        -6.0990    -0.0140     3.1490 cl         1 9LS      -0.021400
     56 H6          -5.4870    -4.7580    -3.7080 ha         1 9LS       0.121000
     57 F23         -4.2380    -2.4960    -4.0790 f          1 9LS      -0.130900
     58 H10         -2.8710    -0.6930    -2.7510 hn         1 9LS       0.221500
@<TRIPOS>BOND
     1     1     3 1   
     2     1     6 1   
     3     1    25 1   
     4     2     4 1   
     5     2    25 2   
     6     3     4 ar  
     7     3     7 ar  
     8     4     8 ar  
     9     5     6 1   
    10     5    19 2   
    11     5    54 1   
    12     6    10 1   
    13     6    33 1   
    14     7    27 ar  
    15     7    34 1   
    16     8     9 ar  
    17     8    35 1   
    18     9    26 1   
    19     9    27 ar  
    20    10    20 1   
    21    10    24 1   
    22    10    36 1   
    23    11    12 ar  
    24    11    31 ar  
    25    11    55 1   
    26    12    32 ar  
    27    12    37 1   
    28    13    14 ar  
    29    13    15 ar  
    30    13    56 1   
    31    14    18 ar  
    32    14    57 1   
    33    15    16 ar  
    34    15    38 1   
    35    16    17 ar  
    36    16    39 1   
    37    17    18 ar  
    38    17    40 1   
    39    18    54 1   
    40    20    21 1   
    41    20    41 1   
    42    20    42 1   
    43    21    22 1   
    44    21    43 1   
    45    21    44 1   
    46    22    23 1   
    47    22    45 1   
    48    22    46 1   
    49    23    24 1   
    50    23    47 1   
    51    23    48 1   
    52    24    49 1   
    53    24    50 1   
    54    25    29 1   
    55    27    28 1   
    56    29    30 ar  
    57    29    32 ar  
    58    30    31 ar  
    59    30    51 1   
    60    31    52 1   
    61    32    53 1   
    62    54    58 1   
@<TRIPOS>SUBSTRUCTURE
     1 9LS         1 TEMP              0 ****  ****    0 ROOT
