@<TRIPOS>MOLECULE
9LT
   51    54     1     0     0
SMALL
bcc


@<TRIPOS>ATOM
      1 CAA          0.0000     0.0000     0.0000 c3         1 9LT      -0.015100
      2 CAB          5.5640    -1.4910     9.8420 c3         1 9LT      -0.008400
      3 CAG          0.7010     2.0210    10.7810 ca         1 9LT      -0.072000
      4 CAH          6.5650     1.6260     8.9060 cc         1 9LT       0.317200
      5 CAI          0.5270     3.2240    10.1240 ca         1 9LT      -0.122000
      6 CAJ          1.4900     1.0330    10.2190 ca         1 9LT      -0.093000
      7 CAK          2.2460     0.0440     4.1180 ca         1 9LT      -0.069000
      8 CAL          2.0170     0.0000     2.7640 ca         1 9LT      -0.134000
      9 CAM          6.9220     0.3430     9.1070 cd         1 9LT      -0.312600
     10 CAN          1.9260     2.4490     8.3380 ca         1 9LT      -0.118000
     11 CAO          2.9400    -2.2710     4.0820 ca         1 9LT      -0.042000
     12 CAP          1.5300     0.0000     0.0000 c3         1 9LT       0.017000
     13 CAU          1.1410     3.4390     8.9010 ca         1 9LT       0.111900
     14 CAV          2.7120    -1.0910     4.7890 ca         1 9LT      -0.152600
     15 CAW          2.1380     1.2310     8.9870 ca         1 9LT      -0.084300
     16 CAX          4.4440     0.4550     8.6180 cd         1 9LT       0.226800
     17 CAY          2.7400    -3.5450     0.6850 c          1 9LT       0.520500
     18 CAZ          2.2430    -2.3300    -0.0220 c          1 9LT       0.535500
     19 CBA          2.7150    -2.3130     2.7140 ca         1 9LT      -0.137400
     20 CBB          2.2490    -1.1750     2.0500 ca         1 9LT      -0.080400
     21 CBC          2.9890     0.1520     8.3690 c3         1 9LT       0.142700
     22 FAF          0.9610     4.6100     8.2520 f          1 9LT      -0.125900
     23 NAQ          5.2680     1.6480     8.5670 nc         1 9LT      -0.613000
     24 NAR          2.7410     0.1010     6.9260 ns         1 9LT      -0.204900
     25 NAS          2.9470    -3.4960     2.0160 ns         1 9LT       0.001900
     26 NBD          5.8080    -0.4180     8.8750 na         1 9LT       0.114100
     27 NBE          2.0180    -1.2010     0.6820 n          1 9LT       0.038000
     28 OAC          3.3680    -2.0270     6.8260 o          1 9LT      -0.654100
     29 OAE          2.0420    -2.3550    -1.2200 o          1 9LT      -0.602500
     30 H1          -0.3610     0.9950     0.2320 hc         1 9LT       0.014033
     31 H2          -0.3610    -0.6980     0.7450 hc         1 9LT       0.014033
     32 H3          -0.3610    -0.2960    -0.9770 hc         1 9LT       0.014033
     33 H4           6.5110    -1.8830    10.1920 h1         1 9LT       0.018033
     34 H5           5.0030    -1.0990    10.6820 h1         1 9LT       0.018033
     35 H6           4.9980    -2.2830     9.3680 h1         1 9LT       0.018033
     36 H8           7.2120     2.4900     9.0030 h4         1 9LT       0.007100
     37 H9          -0.0900     3.9980    10.5650 ha         1 9LT       0.120000
     38 H10          1.6290     0.0920    10.7370 ha         1 9LT       0.107000
     39 H11          2.0680     0.9620     4.6670 ha         1 9LT       0.107000
     40 H12          1.6560     0.8820     2.2480 ha         1 9LT       0.128000
     41 H13          7.9030    -0.0180     9.3920 h4         1 9LT       0.153000
     42 H14          2.4070     2.6170     7.3820 ha         1 9LT       0.122000
     43 H15          3.3020    -3.1520     4.6000 ha         1 9LT       0.137000
     44 H16          1.8910     0.0070    -1.0210 h1         1 9LT       0.044200
     45 H17          1.8910     0.8810     0.5170 h1         1 9LT       0.044200
     46 H18          2.7390    -0.8040     8.8120 h1         1 9LT       0.061700
     47 H19          2.3830     0.9070     6.4510 hn         1 9LT       0.193500
     48 H20          3.2800    -4.3050     2.5010 hn         1 9LT       0.187500
     49 OAD          2.9400    -4.5740     0.0690 o          1 9LT      -0.607500
     50 CAT          2.9620    -1.0400     6.2440 c          1 9LT       0.607700
     51 H7           0.2200     1.8510    11.7360 ha         1 9LT       0.110000
@<TRIPOS>BOND
     1     1    12 1   
     2     1    30 1   
     3     1    31 1   
     4     1    32 1   
     5     2    26 1   
     6     2    33 1   
     7     2    34 1   
     8     2    35 1   
     9     3     5 ar  
    10     3     6 ar  
    11     3    51 1   
    12     4     9 2   
    13     4    23 1   
    14     4    36 1   
    15     5    13 ar  
    16     5    37 1   
    17     6    15 ar  
    18     6    38 1   
    19     7     8 ar  
    20     7    14 ar  
    21     7    39 1   
    22     8    20 ar  
    23     8    40 1   
    24     9    26 1   
    25     9    41 1   
    26    10    13 ar  
    27    10    15 ar  
    28    10    42 1   
    29    11    14 ar  
    30    11    19 ar  
    31    11    43 1   
    32    12    27 1   
    33    12    44 1   
    34    12    45 1   
    35    13    22 1   
    36    14    50 1   
    37    15    21 1   
    38    16    21 1   
    39    16    23 2   
    40    16    26 1   
    41    17    18 1   
    42    17    25 1   
    43    17    49 2   
    44    18    27 1   
    45    18    29 2   
    46    19    20 ar  
    47    19    25 1   
    48    20    27 1   
    49    21    24 1   
    50    21    46 1   
    51    24    47 1   
    52    24    50 1   
    53    25    48 1   
    54    28    50 2   
@<TRIPOS>SUBSTRUCTURE
     1 9LT         1 TEMP              0 ****  ****    0 ROOT
