@<TRIPOS>MOLECULE
molecule
   51    54     1     0     0
SMALL
bcc


@<TRIPOS>ATOM
      1 CAA          0.0000     0.0000     0.0000 c3         1 9LT      -0.116100
      2 CAB          5.5640    -1.4910     9.8420 c3         1 9LT      -0.015400
      3 CAG          0.7010     2.0210    10.7810 ca         1 9LT      -0.102000
      4 CAH          6.5650     1.6260     8.9060 cc         1 9LT       0.320200
      5 CAI          0.5270     3.2240    10.1240 ca         1 9LT      -0.155000
      6 CAJ          1.4900     1.0330    10.2190 ca         1 9LT      -0.124000
      7 CAK          2.2460     0.0440     4.1180 ca         1 9LT      -0.096000
      8 CAL          2.0170     0.0000     2.7640 ca         1 9LT      -0.154000
      9 CAM          6.9220     0.3430     9.1070 cd         1 9LT      -0.224600
     10 CAN          1.9260     2.4490     8.3380 ca         1 9LT      -0.146000
     11 CAO          2.9400    -2.2710     4.0820 ca         1 9LT      -0.078000
     12 CAP          1.5300     0.0000     0.0000 c3         1 9LT       0.093000
     13 CAU          1.1410     3.4390     8.9010 ca         1 9LT       0.137900
     14 CAV          2.7120    -1.0910     4.7890 ca         1 9LT      -0.144600
     15 CAW          2.1380     1.2310     8.9870 ca         1 9LT      -0.074300
     16 CAX          4.4440     0.4550     8.6180 cc         1 9LT       0.369800
     17 CAY          2.7400    -3.5450     0.6850 c          1 9LT       0.629500
     18 CAZ          2.2430    -2.3300    -0.0220 c          1 9LT       0.630500
     19 CBA          2.7150    -2.3130     2.7140 ca         1 9LT       0.009600
     20 CBB          2.2490    -1.1750     2.0500 ca         1 9LT       0.054600
     21 CBC          2.9890     0.1520     8.3690 c3         1 9LT       0.212700
     22 FAF          0.9610     4.6100     8.2520 f          1 9LT      -0.136900
     23 NAQ          5.2680     1.6480     8.5670 nd         1 9LT      -0.699000
     24 NAR          2.7410     0.1010     6.9260 ns         1 9LT      -0.578900
     25 NAS          2.9470    -3.4960     2.0160 ns         1 9LT      -0.449100
     26 NBD          5.8080    -0.4180     8.8750 na         1 9LT      -0.201900
     27 NBE          2.0180    -1.2010     0.6820 n          1 9LT      -0.358000
     28 OAC          3.3680    -2.0270     6.8260 o          1 9LT      -0.607100
     29 OAE          2.0420    -2.3550    -1.2200 o          1 9LT      -0.562500
     30 H1          -0.3610     0.9950     0.2320 hc         1 9LT       0.049033
     31 H2          -0.3610    -0.6980     0.7450 hc         1 9LT       0.049033
     32 H3          -0.3610    -0.2960    -0.9770 hc         1 9LT       0.049033
     33 H4           6.5110    -1.8830    10.1920 h1         1 9LT       0.047367
     34 H5           5.0030    -1.0990    10.6820 h1         1 9LT       0.047367
     35 H6           4.9980    -2.2830     9.3680 h1         1 9LT       0.047367
     36 H8           7.2120     2.4900     9.0030 h4         1 9LT       0.042100
     37 H9          -0.0900     3.9980    10.5650 ha         1 9LT       0.148000
     38 H10          1.6290     0.0920    10.7370 ha         1 9LT       0.135000
     39 H11          2.0680     0.9620     4.6670 ha         1 9LT       0.134000
     40 H12          1.6560     0.8820     2.2480 ha         1 9LT       0.149000
     41 H13          7.9030    -0.0180     9.3920 h4         1 9LT       0.178000
     42 H14          2.4070     2.6170     7.3820 ha         1 9LT       0.146000
     43 H15          3.3020    -3.1520     4.6000 ha         1 9LT       0.167000
     44 H16          1.8910     0.0070    -1.0210 h1         1 9LT       0.070200
     45 H17          1.8910     0.8810     0.5170 h1         1 9LT       0.070200
     46 H18          2.7390    -0.8040     8.8120 h1         1 9LT       0.101700
     47 H19          2.3830     0.9070     6.4510 hn         1 9LT       0.325500
     48 H20          3.2800    -4.3050     2.5010 hn         1 9LT       0.348500
     49 OAD          2.9400    -4.5740     0.0690 o          1 9LT      -0.566500
     50 CAT          2.9620    -1.0400     6.2440 c          1 9LT       0.684700
     51 H7           0.2200     1.8510    11.7360 ha         1 9LT       0.142000
@<TRIPOS>BOND
     1    29    18 2
     2    49    17 2
     3     1    12 1
     4    18    17 1
     5    18    27 1
     6    17    25 1
     7    12    27 1
     8    27    20 1
     9    25    19 1
    10    20    19 ar
    11    20     8 ar
    12    19    11 ar
    13     8     7 ar
    14    11    14 ar
    15     7    14 ar
    16    14    50 1
    17    50    28 2
    18    50    24 1
    19    24    21 1
    20    21    15 1
    21    21    16 1
    22     6    15 ar
    23     6     3 ar
    24    15    10 ar
    25     3     5 ar
    26    10    13 ar
    27     5    13 ar
    28    13    22 1
    29    16    23 2
    30    16    26 1
    31    23     4 1
    32    26     2 1
    33    26     9 1
    34     4     9 2
    35     1    30 1
    36     1    31 1
    37     1    32 1
    38     2    33 1
    39     2    34 1
    40     2    35 1
    41     3    51 1
    42     4    36 1
    43     5    37 1
    44     6    38 1
    45     7    39 1
    46     8    40 1
    47     9    41 1
    48    10    42 1
    49    11    43 1
    50    12    44 1
    51    12    45 1
    52    21    46 1
    53    24    47 1
    54    25    48 1
@<TRIPOS>SUBSTRUCTURE
     1 9LT         1 TEMP              0 ****  ****    0 ROOT
