@<TRIPOS>MOLECULE
9LV
   57    61     1     0     0
SMALL
bcc


@<TRIPOS>ATOM
      1 C4           0.0000     0.0000     0.0000 c3         1 9LV      -0.084700
      2 C5          -0.5270    -0.0740    -1.4100 ca         1 9LV      -0.152300
      3 C6          -1.2600    -1.2530    -1.4880 ca         1 9LV      -0.050400
      4 C7           2.5590     3.6130     1.8850 ca         1 9LV      -0.157500
      5 C10          1.5260     0.0000     0.0000 c3         1 9LV      -0.026400
      6 C15         -1.8720    -1.5890    -2.6940 ca         1 9LV      -0.117000
      7 C17         -0.4060     0.7530    -2.5040 ca         1 9LV      -0.025000
      8 C20          2.0340     0.0000     1.4460 c3         1 9LV       0.208800
      9 C21          0.7490    -6.4180    -0.8990 ca         1 9LV      -0.086600
     10 C24         -0.0850    -5.9030    -1.8940 ca         1 9LV      -0.075500
     11 C26         -0.9760    -4.3290    -0.3230 ca         1 9LV      -0.180300
     12 O28          1.7080    -8.0490    -2.4500 o          1 9LV      -0.880800
     13 O22          2.4000    -7.9710    -0.3430 o          1 9LV      -0.880800
     14 C23          0.7090    -5.8760     0.3870 ca         1 9LV      -0.075500
     15 C32         -0.1520    -4.8350     0.6670 ca         1 9LV      -0.121500
     16 N2          -1.2380    -1.9170    -0.2610 n          1 9LV       0.037000
     17 C3          -0.5230    -1.2520     0.6640 c          1 9LV       0.634500
     18 O16         -0.3360    -1.5920     1.8130 o          1 9LV      -0.641500
     19 N8           1.4170     1.1240     2.1630 n3         1 9LV      -0.506500
     20 C19         -0.0460     1.2500     2.1600 c3         1 9LV       0.208800
     21 C9          -0.5390     1.2390     0.7080 c3         1 9LV      -0.026400
     22 S1           2.3560     2.2320     2.9600 sy         1 9LV       1.044200
     23 O12          3.6410     1.6410     3.1010 o          1 9LV      -0.585800
     24 O13          1.5860     2.6910     4.0620 o          1 9LV      -0.585800
     25 C30          1.9860     4.8300     2.2070 ca         1 9LV       0.012000
     26 C35          2.1500     5.9140     1.3670 ca         1 9LV      -0.139000
     27 C36          2.8870     5.7840     0.2040 ca         1 9LV      -0.044000
     28 C34          3.4600     4.5690    -0.1180 ca         1 9LV      -0.131000
     29 C18          3.2970     3.4830     0.7230 ca         1 9LV       0.046400
     30 Cl29         4.0160     1.9560     0.3180 cl         1 9LV       0.028600
     31 C25         -1.0180     0.4130    -3.6990 ca         1 9LV       0.003100
     32 Br33        -0.8530     1.5450    -5.2050 br         1 9LV      -0.149100
     33 C27         -1.7490    -0.7580    -3.7890 ca         1 9LV      -0.049000
     34 C31         -0.9420    -4.8620    -1.5990 ca         1 9LV      -0.121500
     35 H1           1.8860     0.8860    -0.5080 hc         1 9LV       0.025200
     36 H2           1.8860    -0.8860    -0.5080 hc         1 9LV       0.025200
     37 H3          -2.4460    -2.5040    -2.7730 ha         1 9LV       0.123000
     38 H4           0.1280     1.6920    -2.4170 ha         1 9LV       0.112000
     39 H5           1.7590    -0.9310     1.9270 h1         1 9LV       0.046450
     40 H6           3.1110     0.1140     1.4520 h1         1 9LV       0.046450
     41 H7          -0.0600    -6.3190    -2.8930 ha         1 9LV       0.128000
     42 H9           1.3540    -6.2710     1.1630 ha         1 9LV       0.128000
     43 H10         -0.1840    -4.4130     1.6640 ha         1 9LV       0.093000
     44 H11         -2.7930    -3.2650    -0.6390 h1         1 9LV       0.028700
     45 H12         -2.2110    -3.2450     1.0310 h1         1 9LV       0.028700
     46 H13         -0.4820     0.4160     2.6960 h1         1 9LV       0.046450
     47 H14         -0.3310     2.1820     2.6320 h1         1 9LV       0.046450
     48 H15         -0.1820     2.1270     0.2000 hc         1 9LV       0.025200
     49 H16         -1.6220     1.2190     0.6950 hc         1 9LV       0.025200
     50 H17          1.4090     4.9330     3.1180 ha         1 9LV       0.130000
     51 H18          1.7010     6.8670     1.6190 ha         1 9LV       0.107000
     52 H19          3.0140     6.6350    -0.4540 ha         1 9LV       0.101000
     53 H20          4.0370     4.4660    -1.0290 ha         1 9LV       0.118000
     54 H21         -2.2270    -1.0240    -4.7240 ha         1 9LV       0.114000
     55 H22         -1.5900    -4.4610    -2.3700 ha         1 9LV       0.093000
     56 C14         -1.9150    -3.1920    -0.0090 c3         1 9LV       0.106300
     57 C11          1.6730    -7.5280    -1.2080 c          1 9LV       0.970200
@<TRIPOS>BOND
     1     1     2 1   
     2     1     5 1   
     3     1    17 1   
     4     1    21 1   
     5     2     3 ar  
     6     2     7 ar  
     7     3     6 ar  
     8     3    16 1   
     9     4    22 1   
    10     4    25 ar  
    11     4    29 ar  
    12     5     8 1   
    13     5    35 1   
    14     5    36 1   
    15     6    33 ar  
    16     6    37 1   
    17     7    31 ar  
    18     7    38 1   
    19     8    19 1   
    20     8    39 1   
    21     8    40 1   
    22     9    10 ar  
    23     9    14 ar  
    24     9    57 1   
    25    10    34 ar  
    26    10    41 1   
    27    11    15 ar  
    28    11    34 ar  
    29    11    56 1   
    30    12    57 1   
    31    13    57 1   
    32    14    15 ar  
    33    14    42 1   
    34    15    43 1   
    35    16    17 1   
    36    16    56 1   
    37    17    18 2   
    38    19    20 1   
    39    19    22 1   
    40    20    21 1   
    41    20    46 1   
    42    20    47 1   
    43    21    48 1   
    44    21    49 1   
    45    22    23 2   
    46    22    24 2   
    47    25    26 ar  
    48    25    50 1   
    49    26    27 ar  
    50    26    51 1   
    51    27    28 ar  
    52    27    52 1   
    53    28    29 ar  
    54    28    53 1   
    55    29    30 1   
    56    31    32 1   
    57    31    33 ar  
    58    33    54 1   
    59    34    55 1   
    60    44    56 1   
    61    45    56 1   
@<TRIPOS>SUBSTRUCTURE
     1 9LV         1 TEMP              0 ****  ****    0 ROOT
