@<TRIPOS>MOLECULE
molecule
   57    61     1     0     0
SMALL
bcc


@<TRIPOS>ATOM
      1 C4           0.0000     0.0000     0.0000 c3         1 9LV      -0.092700
      2 C5          -0.5270    -0.0740    -1.4100 ca         1 9LV      -0.148300
      3 C6          -1.2600    -1.2530    -1.4880 ca         1 9LV       0.092600
      4 C7           2.5590     3.6130     1.8850 ca         1 9LV      -0.307500
      5 C10          1.5260     0.0000     0.0000 c3         1 9LV      -0.074900
      6 C15         -1.8720    -1.5890    -2.6940 ca         1 9LV      -0.152000
      7 C17         -0.4060     0.7530    -2.5040 ca         1 9LV      -0.050000
      8 C20          2.0340     0.0000     1.4460 c3         1 9LV       0.227800
      9 C21          0.7490    -6.4180    -0.8990 ca         1 9LV      -0.086600
     10 C24         -0.0850    -5.9030    -1.8940 ca         1 9LV      -0.104500
     11 C26         -0.9760    -4.3290    -0.3230 ca         1 9LV      -0.162300
     12 O28          1.7080    -8.0490    -2.4500 o          1 9LV      -0.832800
     13 O22          2.4000    -7.9710    -0.3430 o          1 9LV      -0.832800
     14 C23          0.7090    -5.8760     0.3870 ca         1 9LV      -0.104500
     15 C32         -0.1520    -4.8350     0.6670 ca         1 9LV      -0.140000
     16 N2          -1.2380    -1.9170    -0.2610 n          1 9LV      -0.355000
     17 C3          -0.5230    -1.2520     0.6640 c          1 9LV       0.722500
     18 O16         -0.3360    -1.5920     1.8130 o          1 9LV      -0.603500
     19 N8           1.4170     1.1240     2.1630 n3         1 9LV      -0.803500
     20 C19         -0.0460     1.2500     2.1600 c3         1 9LV       0.227800
     21 C9          -0.5390     1.2390     0.7080 c3         1 9LV      -0.074900
     22 S1           2.3560     2.2320     2.9600 sy         1 9LV       1.421200
     23 O12          3.6410     1.6410     3.1010 o          1 9LV      -0.631800
     24 O13          1.5860     2.6910     4.0620 o          1 9LV      -0.631800
     25 C30          1.9860     4.8300     2.2070 ca         1 9LV      -0.024000
     26 C35          2.1500     5.9140     1.3670 ca         1 9LV      -0.155000
     27 C36          2.8870     5.7840     0.2040 ca         1 9LV      -0.074000
     28 C34          3.4600     4.5690    -0.1180 ca         1 9LV      -0.144000
     29 C18          3.2970     3.4830     0.7230 ca         1 9LV       0.115400
     30 Cl29         4.0160     1.9560     0.3180 cl         1 9LV      -0.071400
     31 C25         -1.0180     0.4130    -3.6990 ca         1 9LV      -0.055900
     32 Br33        -0.8530     1.5450    -5.2050 br         1 9LV      -0.112100
     33 C27         -1.7490    -0.7580    -3.7890 ca         1 9LV      -0.067000
     34 C31         -0.9420    -4.8620    -1.5990 ca         1 9LV      -0.140000
     35 H1           1.8860     0.8860    -0.5080 hc         1 9LV       0.057700
     36 H2           1.8860    -0.8860    -0.5080 hc         1 9LV       0.057700
     37 H3          -2.4460    -2.5040    -2.7730 ha         1 9LV       0.148000
     38 H4           0.1280     1.6920    -2.4170 ha         1 9LV       0.140000
     39 H5           1.7590    -0.9310     1.9270 h1         1 9LV       0.075700
     40 H6           3.1110     0.1140     1.4520 h1         1 9LV       0.075700
     41 H7          -0.0600    -6.3190    -2.8930 ha         1 9LV       0.154000
     42 H9           1.3540    -6.2710     1.1630 ha         1 9LV       0.154000
     43 H10         -0.1840    -4.4130     1.6640 ha         1 9LV       0.110500
     44 H11         -2.7930    -3.2650    -0.6390 h1         1 9LV       0.058700
     45 H12         -2.2110    -3.2450     1.0310 h1         1 9LV       0.058700
     46 H13         -0.4820     0.4160     2.6960 h1         1 9LV       0.075700
     47 H14         -0.3310     2.1820     2.6320 h1         1 9LV       0.075700
     48 H15         -0.1820     2.1270     0.2000 hc         1 9LV       0.057700
     49 H16         -1.6220     1.2190     0.6950 hc         1 9LV       0.057700
     50 H17          1.4090     4.9330     3.1180 ha         1 9LV       0.160000
     51 H18          1.7010     6.8670     1.6190 ha         1 9LV       0.135000
     52 H19          3.0140     6.6350    -0.4540 ha         1 9LV       0.135000
     53 H20          4.0370     4.4660    -1.0290 ha         1 9LV       0.148000
     54 H21         -2.2270    -1.0240    -4.7240 ha         1 9LV       0.145000
     55 H22         -1.5900    -4.4610    -2.3700 ha         1 9LV       0.110500
     56 C14         -1.9150    -3.1920    -0.0090 c3         1 9LV       0.158300
     57 C11          1.6730    -7.5280    -1.2080 c          1 9LV       0.879200
@<TRIPOS>BOND
     1    32    31 1
     2    33    31 ar
     3    33     6 ar
     4    31     7 ar
     5     6     3 ar
     6    13    57 1
     7    10    34 ar
     8    10     9 ar
     9    34    11 ar
    10     7     2 ar
    11     3     2 ar
    12     3    16 1
    13    57     9 1
    14    57    12 1
    15     9    14 ar
    16    11    56 1
    17    11    15 ar
    18     2     1 1
    19    56    16 1
    20    16    17 1
    21    14    15 ar
    22     1    17 1
    23     1     5 1
    24     1    21 1
    25    17    18 2
    26     5     8 1
    27    21    20 1
    28     8    19 1
    29    19    20 1
    30    19    22 1
    31    24    22 2
    32    22    23 2
    33    22     4 1
    34    30    29 1
    35     4    29 ar
    36     4    25 ar
    37    29    28 ar
    38    25    26 ar
    39    28    27 ar
    40    26    27 ar
    41     5    35 1
    42     5    36 1
    43     6    37 1
    44     7    38 1
    45     8    39 1
    46     8    40 1
    47    10    41 1
    48    14    42 1
    49    15    43 1
    50    56    44 1
    51    56    45 1
    52    20    46 1
    53    20    47 1
    54    21    48 1
    55    21    49 1
    56    25    50 1
    57    26    51 1
    58    27    52 1
    59    28    53 1
    60    33    54 1
    61    34    55 1
@<TRIPOS>SUBSTRUCTURE
     1 9LV         1 TEMP              0 ****  ****    0 ROOT
