@<TRIPOS>MOLECULE
molecule
   58    60     1     0     0
SMALL
bcc


@<TRIPOS>ATOM
      1 CAA          0.0000     0.0000     0.0000 c3         1 9LW      -0.100100
      2 CAM          1.5300     0.0000     0.0000 c3         1 9LW       0.140400
      3 OAV          2.0070     0.0000     1.3460 os         1 9LW      -0.278300
      4 NAT          3.4190    -0.0010     1.4580 n2         1 9LW      -0.327200
      5 CAD          3.9760     0.0010     2.6260 ce         1 9LW       0.184800
      6 CAY          3.1570     0.2200     3.8330 ca         1 9LW      -0.304900
      7 CAJ          3.7180     0.0470     5.1010 ca         1 9LW      -0.047500
      8 CAL          2.9500     0.2530     6.2260 ca         1 9LW      -0.217000
      9 CAI          1.8210     0.6070     3.7120 ca         1 9LW      -0.047500
     10 CAK          1.0600     0.8120     4.8420 ca         1 9LW      -0.217000
     11 CAZ          1.6200     0.6320     6.1010 ca         1 9LW       0.188100
     12 OAW          0.8660     0.8350     7.2140 os         1 9LW      -0.322900
     13 CAN         -0.4940     1.2230     7.0120 c3         1 9LW       0.133400
     14 CAO         -1.1790     1.4030     8.3690 c3         1 9LW      -0.076400
     15 CBB         -2.6360     1.8200     8.1550 c3         1 9LW      -0.072700
     16 CAB         -3.3940     0.6840     7.4660 c3         1 9LW      -0.101100
     17 CAP         -3.2850     2.1200     9.5070 c3         1 9LW      -0.099400
     18 CAQ         -4.7000     2.6550     9.2860 c3         1 9LW       0.128000
     19 NBC         -5.3220     2.9430    10.5810 n          1 9LW      -0.363000
     20 CAX         -5.2670     4.1150    11.2420 c          1 9LW       0.778500
     21 OAC         -4.6920     5.1220    10.8670 o          1 9LW      -0.661500
     22 CAR         -6.0750     2.0570    11.3370 cc         1 9LW      -0.108400
     23 CAS         -6.4610     2.6880    12.4410 cd         1 9LW      -0.127400
     24 NBD         -5.9590     3.9810    12.3910 n          1 9LW      -0.251200
     25 CBA         -6.1430     4.9730    13.3600 ca         1 9LW       0.107600
     26 CAG         -6.8820     4.7160    14.5130 ca         1 9LW      -0.282800
     27 CAE         -7.0390     5.7210    15.4450 ca         1 9LW       0.438700
     28 NAU         -6.5020     6.9100    15.2550 nb         1 9LW      -0.706000
     29 CAF         -5.7950     7.1920    14.1760 ca         1 9LW       0.438700
     30 CAH         -5.5860     6.2400    13.1990 ca         1 9LW      -0.282800
     31 H1          -0.3610    -0.8180     0.6110 hc         1 9LW       0.042367
     32 H2          -0.3610    -0.1200    -1.0140 hc         1 9LW       0.042367
     33 H3           1.8910    -0.8840    -0.5110 h1         1 9LW       0.038700
     34 H5           3.4690    -0.8340     3.0950 h4         1 9LW       0.238800
     35 H7           4.7560    -0.2480     5.1990 ha         1 9LW       0.174000
     36 H8           3.3830     0.1170     7.2090 ha         1 9LW       0.146500
     37 H9           1.3830     0.7480     2.7310 ha         1 9LW       0.174000
     38 H10          0.0220     1.1100     4.7490 ha         1 9LW       0.146500
     39 H11         -0.5260     2.1580     6.4650 h1         1 9LW       0.040700
     40 H12         -2.7650    -0.1970     7.4240 hc         1 9LW       0.038700
     41 H13         -3.6610     0.9850     6.4600 hc         1 9LW       0.038700
     42 H14         -4.2940     0.4590     8.0260 hc         1 9LW       0.038700
     43 H15         -3.3310     1.2110    10.0960 hc         1 9LW       0.060700
     44 H16         -2.6960     2.8610    10.0340 hc         1 9LW       0.060700
     45 H17         -5.2880     1.9140     8.7590 h1         1 9LW       0.066700
     46 H18         -4.6540     3.5640     8.6970 h1         1 9LW       0.066700
     47 H19         -6.7450     1.3610    10.8480 h4         1 9LW       0.177000
     48 H20         -7.4470     2.5050    12.8520 h4         1 9LW       0.180000
     49 H21         -7.3260     3.7410    14.6750 ha         1 9LW       0.165000
     50 H22         -7.6120     5.5310    16.3450 h4         1 9LW       0.027600
     51 H26         -5.3680     8.1810    14.0590 h4         1 9LW       0.027600
     52 H28         -5.0050     6.4770    12.3160 ha         1 9LW       0.165000
     53 H30         -0.3610     0.9380     0.4030 hc         1 9LW       0.042367
     54 H31          1.8910     0.8840    -0.5110 h1         1 9LW       0.038700
     55 H4          -1.0090     0.4560     6.4470 h1         1 9LW       0.040700
     56 H6          -0.6630     2.1700     8.9340 hc         1 9LW       0.061200
     57 H32         -1.1470     0.4690     8.9160 hc         1 9LW       0.061200
     58 H33         -2.6700     2.7060     7.5330 hc         1 9LW       0.055700
@<TRIPOS>BOND
     1     1     2 1
     2     2     3 1
     3     7     8 ar
     4     7     6 ar
     5     4     5 2
     6     4     3 1
     7     5     6 1
     8     8    11 ar
     9     6     9 ar
    10    16    15 1
    11    11    12 1
    12    11    10 ar
    13    13    12 1
    14    13    14 1
    15     9    10 ar
    16    14    15 1
    17    15    17 1
    18    17    18 1
    19    22    19 1
    20    22    23 2
    21    18    19 1
    22    19    20 1
    23    23    24 1
    24    20    24 1
    25    20    21 2
    26    24    25 1
    27    25    26 ar
    28    25    30 ar
    29    26    27 ar
    30    30    29 ar
    31    27    28 ar
    32    29    28 ar
    33     1    31 1
    34     1    32 1
    35     2    33 1
    36     5    34 1
    37     7    35 1
    38     8    36 1
    39     9    37 1
    40    10    38 1
    41    13    39 1
    42    16    40 1
    43    16    41 1
    44    16    42 1
    45    17    43 1
    46    17    44 1
    47    18    45 1
    48    18    46 1
    49    22    47 1
    50    23    48 1
    51    26    49 1
    52    27    50 1
    53    29    51 1
    54    30    52 1
    55     1    53 1
    56     2    54 1
    57    13    55 1
    58    14    56 1
    59    14    57 1
    60    15    58 1
@<TRIPOS>SUBSTRUCTURE
     1 9LW         1 TEMP              0 ****  ****    0 ROOT
