@<TRIPOS>MOLECULE
9LW
   58    60     1     0     0
SMALL
bcc


@<TRIPOS>ATOM
      1 CAA          0.0000     0.0000     0.0000 c3         1 9LW      -0.002100
      2 CAM          1.5300     0.0000     0.0000 c3         1 9LW       0.213400
      3 OAV          2.0070     0.0000     1.3460 os         1 9LW      -0.193300
      4 NAT          3.4190    -0.0010     1.4580 n2         1 9LW      -0.415200
      5 CAD          3.9760     0.0010     2.6260 ce         1 9LW       0.470800
      6 CAY          3.1570     0.2200     3.8330 ca         1 9LW      -0.229900
      7 CAJ          3.7180     0.0470     5.1010 ca         1 9LW      -0.043500
      8 CAL          2.9500     0.2530     6.2260 ca         1 9LW      -0.184500
      9 CAI          1.8210     0.6070     3.7120 ca         1 9LW      -0.043500
     10 CAK          1.0600     0.8120     4.8420 ca         1 9LW      -0.184500
     11 CAZ          1.6200     0.6320     6.1010 ca         1 9LW       0.167100
     12 OAW          0.8660     0.8350     7.2140 os         1 9LW      -0.304900
     13 CAN         -0.4940     1.2230     7.0120 c3         1 9LW       0.194400
     14 CAO         -1.1790     1.4030     8.3690 c3         1 9LW      -0.031400
     15 CBB         -2.6360     1.8200     8.1550 c3         1 9LW      -0.043700
     16 CAB         -3.3940     0.6840     7.4660 c3         1 9LW      -0.017100
     17 CAP         -3.2850     2.1200     9.5070 c3         1 9LW      -0.046400
     18 CAQ         -4.7000     2.6550     9.2860 c3         1 9LW       0.051000
     19 NBC         -5.3220     2.9430    10.5810 n          1 9LW       0.038000
     20 CAX         -5.2670     4.1150    11.2420 c          1 9LW       0.543500
     21 OAC         -4.6920     5.1220    10.8670 o          1 9LW      -0.718500
     22 CAR         -6.0750     2.0570    11.3370 cc         1 9LW      -0.223400
     23 CAS         -6.4610     2.6880    12.4410 cd         1 9LW      -0.267400
     24 NBD         -5.9590     3.9810    12.3910 n          1 9LW       0.208800
     25 CBA         -6.1430     4.9730    13.3600 ca         1 9LW      -0.057400
     26 CAG         -6.8820     4.7160    14.5130 ca         1 9LW      -0.252800
     27 CAE         -7.0390     5.7210    15.4450 ca         1 9LW       0.425200
     28 NAU         -6.5020     6.9100    15.2550 nb         1 9LW      -0.596000
     29 CAF         -5.7950     7.1920    14.1760 ca         1 9LW       0.425200
     30 CAH         -5.5860     6.2400    13.1990 ca         1 9LW      -0.252800
     31 H1          -0.3610    -0.8210     0.6070 hc         1 9LW       0.009033
     32 H2          -0.3610    -0.1150    -1.0150 hc         1 9LW       0.009033
     33 H3           1.8910     0.8840    -0.5110 h1         1 9LW       0.000700
     34 H5           5.0560    -0.0010     2.7060 h4         1 9LW      -0.004200
     35 H7           4.7560    -0.2480     5.1990 ha         1 9LW       0.128500
     36 H8           3.3830     0.1170     7.2090 ha         1 9LW       0.119500
     37 H9           1.3830     0.7480     2.7310 ha         1 9LW       0.128500
     38 H10          0.0220     1.1100     4.7490 ha         1 9LW       0.119500
     39 H11         -0.5260     2.1580     6.4650 h1         1 9LW       0.007200
     40 H12         -3.7870     1.0340     6.5190 hc         1 9LW       0.010033
     41 H13         -2.7210    -0.1470     7.2930 hc         1 9LW       0.010033
     42 H14         -4.2120     0.3600     8.0980 hc         1 9LW       0.010033
     43 H15         -2.6960     2.8610    10.0340 hc         1 9LW       0.031200
     44 H16         -3.3310     1.2110    10.0960 hc         1 9LW       0.031200
     45 H17         -4.6540     3.5640     8.6970 h1         1 9LW       0.039200
     46 H18         -5.2880     1.9140     8.7590 h1         1 9LW       0.039200
     47 H19         -6.7450     1.3610    10.8480 h4         1 9LW       0.157000
     48 H20         -6.4970     2.1570    13.3840 h4         1 9LW       0.162000
     49 H21         -7.3260     3.7410    14.6750 ha         1 9LW       0.148500
     50 H22         -7.6120     5.5310    16.3450 h4         1 9LW      -0.018400
     51 H26         -5.3680     8.1810    14.0590 h4         1 9LW      -0.018400
     52 H28         -5.0050     6.4770    12.3160 ha         1 9LW       0.148500
     53 H30         -0.3610     0.9360     0.4080 hc         1 9LW       0.009033
     54 H31          1.8910    -0.8840    -0.5110 h1         1 9LW       0.000700
     55 H4          -1.0090     0.4560     6.4460 h1         1 9LW       0.007200
     56 H6          -1.1470     0.4690     8.9160 hc         1 9LW       0.028700
     57 H32         -0.6630     2.1700     8.9340 hc         1 9LW       0.028700
     58 H33         -2.6700     2.7060     7.5330 hc         1 9LW       0.032700
@<TRIPOS>BOND
     1     1     2 1   
     2     1    31 1   
     3     1    32 1   
     4     1    53 1   
     5     2     3 1   
     6     2    33 1   
     7     2    54 1   
     8     3     4 1   
     9     4     5 2   
    10     5     6 1   
    11     5    34 1   
    12     6     7 ar  
    13     6     9 ar  
    14     7     8 ar  
    15     7    35 1   
    16     8    11 ar  
    17     8    36 1   
    18     9    10 ar  
    19     9    37 1   
    20    10    11 ar  
    21    10    38 1   
    22    11    12 1   
    23    12    13 1   
    24    13    14 1   
    25    13    39 1   
    26    13    55 1   
    27    14    15 1   
    28    14    56 1   
    29    14    57 1   
    30    15    16 1   
    31    15    17 1   
    32    15    58 1   
    33    16    40 1   
    34    16    41 1   
    35    16    42 1   
    36    17    18 1   
    37    17    43 1   
    38    17    44 1   
    39    18    19 1   
    40    18    45 1   
    41    18    46 1   
    42    19    20 1   
    43    19    22 1   
    44    20    21 2   
    45    20    24 1   
    46    22    23 2   
    47    22    47 1   
    48    23    24 1   
    49    23    48 1   
    50    24    25 1   
    51    25    26 ar  
    52    25    30 ar  
    53    26    27 ar  
    54    26    49 1   
    55    27    28 ar  
    56    27    50 1   
    57    28    29 ar  
    58    29    30 ar  
    59    29    51 1   
    60    30    52 1   
@<TRIPOS>SUBSTRUCTURE
     1 9LW         1 TEMP              0 ****  ****    0 ROOT
