@<TRIPOS>MOLECULE
molecule
   70    75     1     0     0
SMALL
bcc


@<TRIPOS>ATOM
      1 C4           0.0000     0.0000     0.0000 ca         1 9LY      -0.091000
      2 C7           1.3980     0.0000     0.0000 ca         1 9LY       0.106400
      3 C8           2.0910     0.0000     1.2230 ca         1 9LY      -0.067200
      4 C13          4.0300     0.2880     3.2590 c3         1 9LY      -0.085700
      5 C17          5.1990     0.3030     4.2450 c3         1 9LY      -0.091900
      6 C20          2.8070     1.9360     4.6830 c3         1 9LY      -0.077900
      7 C21          3.3320     1.6490     3.2760 c3         1 9LY      -0.091900
      8 C22          8.4130    -2.7810     2.9820 c3         1 9LY      -0.093900
      9 C24          9.6240    -4.2960     1.4070 c3         1 9LY      -0.083400
     10 C26          7.7150    -2.9100     0.5860 c3         1 9LY      -0.093900
     11 C28          4.7920    -0.0010    -1.2290 ca         1 9LY      -0.247200
     12 C1          -0.6840     0.0000     1.1960 ca         1 9LY       0.085900
     13 N10          2.3280    -0.0010    -0.9880 nc         1 9LY      -0.587100
     14 C38          3.5280    -0.0010    -0.4620 cd         1 9LY       0.497400
     15 C29          5.9300     0.6420    -0.7250 ca         1 9LY      -0.077000
     16 C30          7.0870     0.6130    -1.4790 ca         1 9LY      -0.250300
     17 C31          7.0860    -0.0490    -2.7020 ca         1 9LY       0.570800
     18 N32          5.9940    -0.6480    -3.1510 nb         1 9LY      -0.729000
     19 C27          4.8710    -0.6490    -2.4630 ca         1 9LY       0.504200
     20 N33          8.2520    -0.0800    -3.4690 na         1 9LY       0.030600
     21 C34          8.3990    -0.6800    -4.6790 cc         1 9LY      -0.071300
     22 C35          9.6750    -0.4830    -5.0820 cd         1 9LY      -0.351300
     23 C36         10.3310     0.2590    -4.0920 cd         1 9LY       0.351200
     24 N37          9.4800     0.5050    -3.1290 nc         1 9LY      -0.513800
     25 N9           3.4370    -0.0010     0.9040 na         1 9LY      -0.127300
     26 C11          4.5540     0.0000     1.8510 c3         1 9LY      -0.015000
     27 C18          4.6750     0.5890     5.6540 c3         1 9LY      -0.077900
     28 C19          3.9770     1.9500     5.6700 c3         1 9LY      -0.082400
     29 C12          5.2300    -1.3470     1.8310 c          1 9LY       0.639100
     30 O14          4.6000    -2.3370     1.5240 o          1 9LY      -0.577100
     31 N15          6.5350    -1.4520     2.1550 ns         1 9LY      -0.580900
     32 C16          7.2210    -2.7390     2.0230 c3         1 9LY       0.114700
     33 C23          9.1300    -4.1250     2.8450 c3         1 9LY      -0.076400
     34 C25          8.4310    -4.2550     0.4500 c3         1 9LY      -0.076400
     35 C3           1.3870     0.0010     2.4180 ca         1 9LY      -0.162000
     36 C2           0.0070     0.0000     2.4030 ca         1 9LY       0.108900
     37 F6          -0.6770     0.0010     3.5690 f          1 9LY      -0.127900
     38 H1          -0.5420     0.0870    -0.9340 ha         1 9LY       0.165000
     39 H2           3.3250    -0.4810     3.5510 hc         1 9LY       0.086700
     40 H4           5.6920    -0.6620     4.2340 hc         1 9LY       0.052200
     41 H5           2.3150     2.9010     4.6940 hc         1 9LY       0.048700
     42 H6           2.1040     1.1630     4.9700 hc         1 9LY       0.048700
     43 H7           4.0380     2.4190     2.9920 hc         1 9LY       0.052200
     44 H8           2.5030     1.6370     2.5780 hc         1 9LY       0.052200
     45 H9           9.1000    -1.9800     2.7370 hc         1 9LY       0.047450
     46 H10          8.0610    -2.6630     3.9990 hc         1 9LY       0.047450
     47 H11         10.1290    -5.2500     1.3110 hc         1 9LY       0.043700
     48 H12         10.3080    -3.4930     1.1640 hc         1 9LY       0.043700
     49 H13          6.8690    -2.8830    -0.0910 hc         1 9LY       0.047450
     50 H14          8.4030    -2.1100     0.3440 hc         1 9LY       0.047450
     51 H15          5.9020     1.1500     0.2310 ha         1 9LY       0.143000
     52 H16          7.9860     1.1000    -1.1210 ha         1 9LY       0.168000
     53 H17          3.9970    -1.1500    -2.8630 h4         1 9LY       0.057100
     54 H18          7.6330    -1.2180    -5.2230 h4         1 9LY       0.192000
     55 H19         10.1140    -0.8380    -6.0070 ha         1 9LY       0.162000
     56 H20         11.3650     0.5790    -4.1200 h4         1 9LY       0.053100
     57 H21          5.2670     0.7660     1.5670 h1         1 9LY       0.075700
     58 H22          5.5040     0.6010     6.3510 hc         1 9LY       0.048700
     59 H23          3.9680    -0.1820     5.9380 hc         1 9LY       0.048700
     60 H24          4.6820     2.7200     5.3810 hc         1 9LY       0.045200
     61 H25          3.6030     2.1510     6.6670 hc         1 9LY       0.045200
     62 H26          7.0430    -0.6430     2.4530 hn         1 9LY       0.312500
     63 H27          6.5370    -3.5440     2.2660 h1         1 9LY       0.085700
     64 H28          8.4420    -4.9260     3.0870 hc         1 9LY       0.046950
     65 H29          9.9760    -4.1520     3.5220 hc         1 9LY       0.046950
     66 H30          8.7820    -4.3740    -0.5680 hc         1 9LY       0.046950
     67 H31          7.7440    -5.0550     0.6960 hc         1 9LY       0.046950
     68 H32          1.9190     0.0010     3.3620 ha         1 9LY       0.169000
     69 F5          -2.0350     0.0010     1.1960 f          1 9LY      -0.127900
     70 H3           5.9020     1.0760     3.9590 hc         1 9LY       0.052200
@<TRIPOS>BOND
     1     9    34 1
     2     9    33 1
     3    34    10 1
     4    33     8 1
     5    21    22 2
     6    21    20 1
     7    22    23 1
     8    18    19 ar
     9    18    17 ar
    10    10    32 1
    11     8    32 1
    12    19    11 ar
    13    20    17 1
    14    20    24 1
    15    13     2 1
    16    13    14 2
    17     1     2 ar
    18     1    12 ar
    19    23    24 2
    20    17    16 ar
    21    69    12 1
    22    32    31 1
    23     2     3 ar
    24    11    14 1
    25    11    15 ar
    26    14    25 1
    27    12    36 ar
    28    31    29 1
    29    16    15 ar
    30     3    25 1
    31     3    35 ar
    32    25    26 1
    33    36    35 ar
    34    36    37 1
    35    29    26 1
    36    29    30 2
    37    26     4 1
    38     4     7 1
    39     4     5 1
    40     7     6 1
    41     5    27 1
    42     6    28 1
    43    27    28 1
    44     1    38 1
    45     4    39 1
    46     5    70 1
    47     5    40 1
    48     6    41 1
    49     6    42 1
    50     7    43 1
    51     7    44 1
    52     8    45 1
    53     8    46 1
    54     9    47 1
    55     9    48 1
    56    10    49 1
    57    10    50 1
    58    15    51 1
    59    16    52 1
    60    19    53 1
    61    21    54 1
    62    22    55 1
    63    23    56 1
    64    26    57 1
    65    27    58 1
    66    27    59 1
    67    28    60 1
    68    28    61 1
    69    31    62 1
    70    32    63 1
    71    33    64 1
    72    33    65 1
    73    34    66 1
    74    34    67 1
    75    35    68 1
@<TRIPOS>SUBSTRUCTURE
     1 9LY         1 TEMP              0 ****  ****    0 ROOT
