@<TRIPOS>MOLECULE
9LY
   70    75     1     0     0
SMALL
bcc


@<TRIPOS>ATOM
      1 C4           0.0000     0.0000     0.0000 ca         1 9LY      -0.047000
      2 C7           1.3980     0.0000     0.0000 ca         1 9LY       0.074400
      3 C8           2.0910     0.0000     1.2230 ca         1 9LY      -0.232200
      4 C13          4.0300     0.2880     3.2590 c3         1 9LY      -0.068700
      5 C17          5.1990     0.3030     4.2450 c3         1 9LY      -0.056900
      6 C20          2.8070     1.9360     4.6830 c3         1 9LY      -0.020400
      7 C21          3.3320     1.6490     3.2760 c3         1 9LY      -0.056900
      8 C22          8.4130    -2.7810     2.9820 c3         1 9LY      -0.040900
      9 C24          9.6240    -4.2960     1.4070 c3         1 9LY      -0.028400
     10 C26          7.7150    -2.9100     0.5860 c3         1 9LY      -0.040900
     11 C28          4.7920    -0.0010    -1.2290 ca         1 9LY      -0.223200
     12 C1          -0.6840     0.0000     1.1960 ca         1 9LY       0.064900
     13 N10          2.3280    -0.0010    -0.9880 nc         1 9LY      -0.500100
     14 C38          3.5280    -0.0010    -0.4620 cd         1 9LY       0.294400
     15 C29          5.9300     0.6420    -0.7250 ca         1 9LY      -0.081000
     16 C30          7.0870     0.6130    -1.4790 ca         1 9LY      -0.211300
     17 C31          7.0860    -0.0490    -2.7020 ca         1 9LY       0.343800
     18 N32          5.9940    -0.6480    -3.1510 nb         1 9LY      -0.596000
     19 C27          4.8710    -0.6490    -2.4630 ca         1 9LY       0.472200
     20 N33          8.2520    -0.0800    -3.4690 na         1 9LY       0.493600
     21 C34          8.3990    -0.6800    -4.6790 cc         1 9LY      -0.224300
     22 C35          9.6750    -0.4830    -5.0820 cd         1 9LY      -0.329300
     23 C36         10.3310     0.2590    -4.0920 cd         1 9LY       0.412200
     24 N37          9.4800     0.5050    -3.1290 nc         1 9LY      -0.669800
     25 N9           3.4370    -0.0010     0.9040 na         1 9LY       0.355700
     26 C11          4.5540     0.0000     1.8510 c3         1 9LY      -0.147000
     27 C18          4.6750     0.5890     5.6540 c3         1 9LY      -0.020400
     28 C19          3.9770     1.9500     5.6700 c3         1 9LY      -0.027400
     29 C12          5.2300    -1.3470     1.8310 c          1 9LY       0.555100
     30 O14          4.6000    -2.3370     1.5240 o          1 9LY      -0.621100
     31 N15          6.5350    -1.4520     2.1550 ns         1 9LY      -0.183900
     32 C16          7.2210    -2.7390     2.0230 c3         1 9LY       0.013700
     33 C23          9.1300    -4.1250     2.8450 c3         1 9LY      -0.016900
     34 C25          8.4310    -4.2550     0.4500 c3         1 9LY      -0.016900
     35 C3           1.3870     0.0010     2.4180 ca         1 9LY      -0.147000
     36 C2           0.0070     0.0000     2.4030 ca         1 9LY       0.093900
     37 F6          -0.6770     0.0010     3.5690 f          1 9LY      -0.118900
     38 H1          -0.5420     0.0870    -0.9340 ha         1 9LY       0.131000
     39 H2           3.3250    -0.4810     3.5510 hc         1 9LY       0.071700
     40 H4           5.6920    -0.6620     4.2340 hc         1 9LY       0.030450
     41 H5           2.3150     2.9010     4.6940 hc         1 9LY       0.020700
     42 H6           2.1040     1.1630     4.9700 hc         1 9LY       0.020700
     43 H7           4.0380     2.4190     2.9920 hc         1 9LY       0.030450
     44 H8           2.5030     1.6370     2.5780 hc         1 9LY       0.030450
     45 H9           9.1000    -1.9800     2.7370 hc         1 9LY       0.020700
     46 H10          8.0610    -2.6630     3.9990 hc         1 9LY       0.020700
     47 H11         10.1290    -5.2500     1.3110 hc         1 9LY       0.016700
     48 H12         10.3080    -3.4930     1.1640 hc         1 9LY       0.016700
     49 H13          6.8690    -2.8830    -0.0910 hc         1 9LY       0.020700
     50 H14          8.4030    -2.1100     0.3440 hc         1 9LY       0.020700
     51 H15          5.9020     1.1500     0.2310 ha         1 9LY       0.117000
     52 H16          7.9860     1.1000    -1.1210 ha         1 9LY       0.144000
     53 H17          3.9970    -1.1500    -2.8630 h4         1 9LY       0.007100
     54 H18          7.6330    -1.2180    -5.2230 h4         1 9LY       0.162000
     55 H19         10.1140    -0.8380    -6.0070 ha         1 9LY       0.137000
     56 H20         11.3650     0.5790    -4.1200 h4         1 9LY       0.004100
     57 H21          5.2670     0.7660     1.5670 h1         1 9LY       0.062700
     58 H22          5.5040     0.6010     6.3510 hc         1 9LY       0.020700
     59 H23          3.9680    -0.1820     5.9380 hc         1 9LY       0.020700
     60 H24          4.6820     2.7200     5.3810 hc         1 9LY       0.017700
     61 H25          3.6030     2.1510     6.6670 hc         1 9LY       0.017700
     62 H26          7.0430    -0.6430     2.4530 hn         1 9LY       0.178500
     63 H27          6.5370    -3.5440     2.2660 h1         1 9LY       0.065700
     64 H28          8.4420    -4.9260     3.0870 hc         1 9LY       0.018200
     65 H29          9.9760    -4.1520     3.5220 hc         1 9LY       0.018200
     66 H30          8.7820    -4.3740    -0.5680 hc         1 9LY       0.018200
     67 H31          7.7440    -5.0550     0.6960 hc         1 9LY       0.018200
     68 H32          1.9190     0.0010     3.3620 ha         1 9LY       0.162000
     69 F5          -2.0350     0.0010     1.1960 f          1 9LY      -0.117900
     70 H3           5.9020     1.0760     3.9590 hc         1 9LY       0.030450
@<TRIPOS>BOND
     1     1     2 ar  
     2     1    12 ar  
     3     1    38 1   
     4     2     3 ar  
     5     2    13 1   
     6     3    25 1   
     7     3    35 ar  
     8     4     5 1   
     9     4     7 1   
    10     4    26 1   
    11     4    39 1   
    12     5    27 1   
    13     5    40 1   
    14     5    70 1   
    15     6     7 1   
    16     6    28 1   
    17     6    41 1   
    18     6    42 1   
    19     7    43 1   
    20     7    44 1   
    21     8    32 1   
    22     8    33 1   
    23     8    45 1   
    24     8    46 1   
    25     9    33 1   
    26     9    34 1   
    27     9    47 1   
    28     9    48 1   
    29    10    32 1   
    30    10    34 1   
    31    10    49 1   
    32    10    50 1   
    33    11    14 1   
    34    11    15 ar  
    35    11    19 ar  
    36    12    36 ar  
    37    12    69 1   
    38    13    14 2   
    39    14    25 1   
    40    15    16 ar  
    41    15    51 1   
    42    16    17 ar  
    43    16    52 1   
    44    17    18 ar  
    45    17    20 1   
    46    18    19 ar  
    47    19    53 1   
    48    20    21 1   
    49    20    24 1   
    50    21    22 2   
    51    21    54 1   
    52    22    23 1   
    53    22    55 1   
    54    23    24 2   
    55    23    56 1   
    56    25    26 1   
    57    26    29 1   
    58    26    57 1   
    59    27    28 1   
    60    27    58 1   
    61    27    59 1   
    62    28    60 1   
    63    28    61 1   
    64    29    30 2   
    65    29    31 1   
    66    31    32 1   
    67    31    62 1   
    68    32    63 1   
    69    33    64 1   
    70    33    65 1   
    71    34    66 1   
    72    34    67 1   
    73    35    36 ar  
    74    35    68 1   
    75    36    37 1   
@<TRIPOS>SUBSTRUCTURE
     1 9LY         1 TEMP              0 ****  ****    0 ROOT
