@<TRIPOS>MOLECULE
molecule
   43    48     1     0     0
SMALL
bcc


@<TRIPOS>ATOM
      1 C4           0.0000     0.0000     0.0000 ca         1 9M0       0.199100
      2 C5           1.4010     0.0000     0.0000 ca         1 9M0      -0.264600
      3 C6           2.1080     0.0000     1.2070 ca         1 9M0       0.217900
      4 C8          -0.1570    -0.2290    -2.3230 cc         1 9M0       0.057100
      5 C9           1.3140    -0.2390    -2.4640 cc         1 9M0      -0.240600
      6 C10          2.1560    -0.0040    -1.2820 c          1 9M0       0.613300
      7 C11         -0.6500    -0.4770    -3.5440 cd         1 9M0      -0.095600
      8 C13          1.5860    -0.4940    -3.7870 cd         1 9M0      -0.054800
      9 O7          -0.7520     0.0050    -1.1310 os         1 9M0      -0.196200
     10 C15          2.9160    -0.5960    -4.3990 cd         1 9M0       0.533900
     11 C1           1.4210    -0.0030     2.4040 ca         1 9M0      -0.214000
     12 C2           0.0370    -0.0040     2.4060 ca         1 9M0      -0.052000
     13 C3          -0.6690     0.0010     1.2230 ca         1 9M0      -0.186000
     14 N12          0.3850    -0.6370    -4.4290 na         1 9M0      -0.154100
     15 O14          3.3600     0.1720    -1.3460 o          1 9M0      -0.475100
     16 C16         -2.1140    -0.5650    -3.8900 c3         1 9M0       0.048200
     17 C17         -2.6500     0.8170    -4.1610 ca         1 9M0      -0.088300
     18 C18         -2.6150     1.3310    -5.4440 ca         1 9M0      -0.111000
     19 C19         -3.1080     2.6010    -5.6960 ca         1 9M0       0.051100
     20 C20         -3.6380     3.3570    -4.6540 ca         1 9M0       0.052100
     21 C21         -3.6700     2.8360    -3.3710 ca         1 9M0      -0.110000
     22 C22         -3.1820     1.5650    -3.1270 ca         1 9M0      -0.108000
     23 O23         -3.1890     3.3280    -6.8480 os         1 9M0      -0.328900
     24 C24         -3.3980     4.6910    -6.4290 c3         1 9M0       0.332200
     25 O25         -4.0520     4.5590    -5.1530 os         1 9M0      -0.325900
     26 S26          3.2380    -0.9240    -6.0990 ss         1 9M0      -0.278300
     27 C27          4.9700    -0.8380    -5.7830 cd         1 9M0      -0.165400
     28 C28          5.1460    -0.5800    -4.4810 cc         1 9M0       0.372200
     29 N29          4.0520    -0.4510    -3.7700 nc         1 9M0      -0.612000
     30 F30          3.4600     0.0030     1.2000 f          1 9M0      -0.109900
     31 H1           1.9650    -0.0060     3.3410 ha         1 9M0       0.151000
     32 H2          -0.4980    -0.0060     3.3490 ha         1 9M0       0.142000
     33 H3          -1.7520    -0.0000     1.2430 ha         1 9M0       0.148000
     34 H4           0.2780    -0.8310    -5.4050 hn         1 9M0       0.310700
     35 H5          -2.2400    -1.1800    -4.7730 hc         1 9M0       0.065700
     36 H6          -2.6550    -1.0060    -3.0620 hc         1 9M0       0.065700
     37 H7          -2.2290     0.7290    -6.2570 ha         1 9M0       0.136000
     38 H8          -4.0870     3.4200    -2.5590 ha         1 9M0       0.147000
     39 H9          -3.2450     1.1430    -2.1310 ha         1 9M0       0.148000
     40 H10         -4.0550     5.1940    -7.1280 h2         1 9M0       0.072700
     41 H11          5.7570    -0.9720    -6.5160 h4         1 9M0       0.183000
     42 H12          6.1320    -0.4780    -4.0430 h4         1 9M0       0.052100
     43 H13         -2.4440     5.1880    -6.3030 h2         1 9M0       0.072700
@<TRIPOS>BOND
     1    25    20 1
     2    25    24 1
     3    21    20 ar
     4    21    22 ar
     5    20    19 ar
     6    22    17 ar
     7    24    23 1
     8    19    23 1
     9    19    18 ar
    10    17    18 ar
    11    17    16 1
    12    16     7 1
    13     7     4 2
    14     7    14 1
    15     9     4 1
    16     9     1 1
    17    13     1 ar
    18    13    12 ar
    19     4     5 1
    20    14     8 1
    21     1     2 ar
    22    12    11 ar
    23     5     8 2
    24     5     6 1
    25     8    10 1
    26     2     6 1
    27     2     3 ar
    28    11     3 ar
    29     6    15 2
    30     3    30 1
    31    29    10 2
    32    29    28 1
    33    10    26 1
    34    28    27 2
    35    26    27 1
    36    11    31 1
    37    12    32 1
    38    13    33 1
    39    14    34 1
    40    16    35 1
    41    16    36 1
    42    18    37 1
    43    21    38 1
    44    22    39 1
    45    24    40 1
    46    27    41 1
    47    28    42 1
    48    24    43 1
@<TRIPOS>SUBSTRUCTURE
     1 9M0         1 TEMP              0 ****  ****    0 ROOT
