@<TRIPOS>MOLECULE
9M1
   55    58     1     0     0
SMALL
bcc


@<TRIPOS>ATOM
      1 N3           0.0000     0.0000     0.0000 n          1 9M1      -0.137800
      2 C4           1.0050     2.3220     1.8380 cc         1 9M1      -0.111400
      3 C6           1.4640     0.0000     0.0000 c3         1 9M1       0.025000
      4 C7          -0.2920     2.1540     1.1000 c3         1 9M1       0.019200
      5 C8          -0.6830    -0.6230    -0.9800 c          1 9M1       0.615700
      6 C10          2.7290     3.2600     3.0300 ca         1 9M1      -0.218200
      7 C13          0.0400    -1.1990    -2.1330 ca         1 9M1      -0.133600
      8 C15          1.8980    -1.1550    -3.6580 ca         1 9M1       0.072900
      9 C17          1.3930    -2.2820    -4.2960 ca         1 9M1       0.097900
     10 C20          0.2130    -2.8620    -3.8580 ca         1 9M1      -0.120000
     11 C24         -1.3780     2.9840     1.7880 c3         1 9M1      -0.009100
     12 C26          0.8720     4.7950     2.7380 ca         1 9M1      -0.056000
     13 C28         -0.4440    -2.6780     2.6590 c3         1 9M1       0.225400
     14 C31         -0.9700    -3.9070     1.9170 c3         1 9M1      -0.007100
     15 O22          0.4540    -1.9370     1.7900 os         1 9M1      -0.416900
     16 C11          1.0050    -0.8210     2.2940 c          1 9M1       0.708100
     17 O18          0.7460    -0.4760     3.4220 o          1 9M1      -0.573000
     18 C2           1.9480     0.0000     1.4520 c3         1 9M1      -0.010500
     19 C12         -0.7160     0.6830     1.0870 c3         1 9M1      -0.014000
     20 C25         -0.1220     2.6370    -0.3420 c3         1 9M1      -0.009100
     21 C1           1.9870     1.4140     1.9760 cd         1 9M1      -0.256300
     22 N5           3.0300     1.9660     2.6750 na         1 9M1       0.375600
     23 C27          3.4130     4.2440     3.7360 ca         1 9M1      -0.104000
     24 C30          2.8280     5.4760     3.9330 ca         1 9M1      -0.080000
     25 C29          1.5610     5.7470     3.4350 ca         1 9M1      -0.130000
     26 C9           1.4450     3.5410     2.5250 ca         1 9M1      -0.090800
     27 O16         -1.8940    -0.7100    -0.9170 o          1 9M1      -0.641100
     28 C19         -0.4640    -2.3280    -2.7820 ca         1 9M1      -0.025000
     29 F23          2.0560    -2.8110    -5.3470 f          1 9M1      -0.113900
     30 F21          3.0470    -0.5930    -4.0890 f          1 9M1      -0.114900
     31 C14          1.2260    -0.6140    -2.5800 ca         1 9M1      -0.126000
     32 H1           1.8280    -0.8870    -0.5040 h1         1 9M1       0.046700
     33 H2           1.8280     0.8870    -0.5040 h1         1 9M1       0.046700
     34 H3          -0.1760    -3.7390    -4.3600 ha         1 9M1       0.127000
     35 H4          -1.2820     4.0210     1.4910 hc         1 9M1       0.013867
     36 H5          -1.2670     2.9050     2.8630 hc         1 9M1       0.013867
     37 H6          -2.3540     2.6140     1.4980 hc         1 9M1       0.013867
     38 H7          -0.1170     5.0130     2.3520 ha         1 9M1       0.114000
     39 H8           0.1080    -2.9930     3.5360 h1         1 9M1       0.012200
     40 H9          -1.2770    -2.0550     2.9610 h1         1 9M1       0.012200
     41 H10         -0.1690    -4.3480     1.3360 hc         1 9M1       0.014033
     42 H11         -1.3370    -4.6320     2.6340 hc         1 9M1       0.014033
     43 H12         -1.7760    -3.6130     1.2560 hc         1 9M1       0.014033
     44 H13          2.9430    -0.4260     1.4980 hc         1 9M1       0.048700
     45 H14         -1.7830     0.6140     0.9180 h1         1 9M1       0.068200
     46 H15         -0.4610     0.2240     2.0340 h1         1 9M1       0.068200
     47 H16          0.9050     2.4910    -0.6530 hc         1 9M1       0.013867
     48 H17         -0.7800     2.0720    -0.9920 hc         1 9M1       0.013867
     49 H18         -0.3720     3.6890    -0.4020 hc         1 9M1       0.013867
     50 H19          3.8860     1.4960     2.8950 hn         1 9M1       0.112700
     51 H20          4.4020     4.0430     4.1290 ha         1 9M1       0.100000
     52 H21          3.3620     6.2410     4.4840 ha         1 9M1       0.101000
     53 H22          1.1160     6.7210     3.5980 ha         1 9M1       0.103000
     54 H23         -1.3860    -2.7830    -2.4420 ha         1 9M1       0.130000
     55 H24          1.6180     0.2650    -2.0820 ha         1 9M1       0.144000
@<TRIPOS>BOND
     1     1     3 1   
     2     1     5 1   
     3     1    19 1   
     4     2     4 1   
     5     2    21 2   
     6     2    26 1   
     7     3    18 1   
     8     3    32 1   
     9     3    33 1   
    10     4    11 1   
    11     4    19 1   
    12     4    20 1   
    13     5     7 1   
    14     5    27 2   
    15     6    22 1   
    16     6    23 ar  
    17     6    26 ar  
    18     7    28 ar  
    19     7    31 ar  
    20     8     9 ar  
    21     8    30 1   
    22     8    31 ar  
    23     9    10 ar  
    24     9    29 1   
    25    10    28 ar  
    26    10    34 1   
    27    11    35 1   
    28    11    36 1   
    29    11    37 1   
    30    12    25 ar  
    31    12    26 ar  
    32    12    38 1   
    33    13    14 1   
    34    13    15 1   
    35    13    39 1   
    36    13    40 1   
    37    14    41 1   
    38    14    42 1   
    39    14    43 1   
    40    15    16 1   
    41    16    17 2   
    42    16    18 1   
    43    18    21 1   
    44    18    44 1   
    45    19    45 1   
    46    19    46 1   
    47    20    47 1   
    48    20    48 1   
    49    20    49 1   
    50    21    22 1   
    51    22    50 1   
    52    23    24 ar  
    53    23    51 1   
    54    24    25 ar  
    55    24    52 1   
    56    25    53 1   
    57    28    54 1   
    58    31    55 1   
@<TRIPOS>SUBSTRUCTURE
     1 9M1         1 TEMP              0 ****  ****    0 ROOT
