@<TRIPOS>MOLECULE
molecule
   55    58     1     0     0
SMALL
bcc


@<TRIPOS>ATOM
      1 N3           0.0000     0.0000     0.0000 n          1 9M1      -0.481800
      2 C4           1.0050     2.3220     1.8380 cc         1 9M1      -0.109400
      3 C6           1.4640     0.0000     0.0000 c3         1 9M1       0.108000
      4 C7          -0.2920     2.1540     1.1000 c3         1 9M1      -0.006800
      5 C8          -0.6830    -0.6230    -0.9800 c          1 9M1       0.685700
      6 C10          2.7290     3.2600     3.0300 ca         1 9M1      -0.025200
      7 C13          0.0400    -1.1990    -2.1330 ca         1 9M1      -0.131600
      8 C15          1.8980    -1.1550    -3.6580 ca         1 9M1       0.086900
      9 C17          1.3930    -2.2820    -4.2960 ca         1 9M1       0.117900
     10 C20          0.2130    -2.8620    -3.8580 ca         1 9M1      -0.155000
     11 C24         -1.3780     2.9840     1.7880 c3         1 9M1      -0.080600
     12 C26          0.8720     4.7950     2.7380 ca         1 9M1      -0.079000
     13 C28         -0.4440    -2.6780     2.6590 c3         1 9M1       0.146400
     14 C31         -0.9700    -3.9070     1.9170 c3         1 9M1      -0.097100
     15 O22          0.4540    -1.9370     1.7900 os         1 9M1      -0.427900
     16 C11          1.0050    -0.8210     2.2940 c          1 9M1       0.648100
     17 O18          0.7460    -0.4760     3.4220 o          1 9M1      -0.539000
     18 C2           1.9480     0.0000     1.4520 c3         1 9M1      -0.062500
     19 C12         -0.7160     0.6830     1.0870 c3         1 9M1       0.088000
     20 C25         -0.1220     2.6370    -0.3420 c3         1 9M1      -0.080600
     21 C1           1.9870     1.4140     1.9760 cd         1 9M1      -0.058300
     22 N5           3.0300     1.9660     2.6750 na         1 9M1      -0.171400
     23 C27          3.4130     4.2440     3.7360 ca         1 9M1      -0.146000
     24 C30          2.8280     5.4760     3.9330 ca         1 9M1      -0.103000
     25 C29          1.5610     5.7470     3.4350 ca         1 9M1      -0.158000
     26 C9           1.4450     3.5410     2.5250 ca         1 9M1      -0.096800
     27 O16         -1.8940    -0.7100    -0.9170 o          1 9M1      -0.601100
     28 C19         -0.4640    -2.3280    -2.7820 ca         1 9M1      -0.061000
     29 F23          2.0560    -2.8110    -5.3470 f          1 9M1      -0.123900
     30 F21          3.0470    -0.5930    -4.0890 f          1 9M1      -0.125900
     31 C14          1.2260    -0.6140    -2.5800 ca         1 9M1      -0.139000
     32 H1           1.8280    -0.8870    -0.5040 h1         1 9M1       0.066200
     33 H2           1.8280     0.8870    -0.5040 h1         1 9M1       0.066200
     34 H3          -0.1760    -3.7390    -4.3600 ha         1 9M1       0.158000
     35 H4          -1.2820     4.0210     1.4910 hc         1 9M1       0.040867
     36 H5          -1.2670     2.9050     2.8630 hc         1 9M1       0.040867
     37 H6          -2.3540     2.6140     1.4980 hc         1 9M1       0.040867
     38 H7          -0.1170     5.0130     2.3520 ha         1 9M1       0.135000
     39 H8           0.1080    -2.9930     3.5360 h1         1 9M1       0.051200
     40 H9          -1.2770    -2.0550     2.9610 h1         1 9M1       0.051200
     41 H10         -0.1690    -4.3480     1.3360 hc         1 9M1       0.049700
     42 H11         -1.3370    -4.6320     2.6340 hc         1 9M1       0.049700
     43 H12         -1.7760    -3.6130     1.2560 hc         1 9M1       0.049700
     44 H13          2.9430    -0.4260     1.4980 hc         1 9M1       0.086700
     45 H14         -1.7830     0.6140     0.9180 h1         1 9M1       0.082200
     46 H15         -0.4610     0.2240     2.0340 h1         1 9M1       0.082200
     47 H16          0.9050     2.4910    -0.6530 hc         1 9M1       0.040867
     48 H17         -0.7800     2.0720    -0.9920 hc         1 9M1       0.040867
     49 H18         -0.3720     3.6890    -0.4020 hc         1 9M1       0.040867
     50 H19          3.8860     1.4960     2.8950 hn         1 9M1       0.295700
     51 H20          4.4020     4.0430     4.1290 ha         1 9M1       0.126000
     52 H21          3.3620     6.2410     4.4840 ha         1 9M1       0.130000
     53 H22          1.1160     6.7210     3.5980 ha         1 9M1       0.130000
     54 H23         -1.3860    -2.7830    -2.4420 ha         1 9M1       0.164000
     55 H24          1.6180     0.2650    -2.0820 ha         1 9M1       0.163000
@<TRIPOS>BOND
     1    14    13 1
     2    13    15 1
     3    15    16 1
     4    19     1 1
     5    19     4 1
     6    20     4 1
     7     1     3 1
     8     1     5 1
     9    16    18 1
    10    16    17 2
    11     3    18 1
    12    27     5 2
    13    30     8 1
    14    18    21 1
    15    31     8 ar
    16    31     7 ar
    17     5     7 1
    18     4     2 1
    19     4    11 1
    20     8     9 ar
    21     7    28 ar
    22    21     2 2
    23    21    22 1
    24     2    26 1
    25    22     6 1
    26     9    29 1
    27     9    10 ar
    28    28    10 ar
    29    26     6 ar
    30    26    12 ar
    31     6    23 ar
    32    12    25 ar
    33    23    24 ar
    34    25    24 ar
    35     3    32 1
    36     3    33 1
    37    10    34 1
    38    11    35 1
    39    11    36 1
    40    11    37 1
    41    12    38 1
    42    13    39 1
    43    13    40 1
    44    14    41 1
    45    14    42 1
    46    14    43 1
    47    18    44 1
    48    19    45 1
    49    19    46 1
    50    20    47 1
    51    20    48 1
    52    20    49 1
    53    22    50 1
    54    23    51 1
    55    24    52 1
    56    25    53 1
    57    28    54 1
    58    31    55 1
@<TRIPOS>SUBSTRUCTURE
     1 9M1         1 TEMP              0 ****  ****    0 ROOT
