@<TRIPOS>MOLECULE
9M2
   59    62     1     0     0
SMALL
bcc


@<TRIPOS>ATOM
      1 C12          0.0000     0.0000     0.0000 ca         1 9M2      -0.178000
      2 C8           4.2370    -0.9170     0.4400 ca         1 9M2      -0.013000
      3 C9           5.6470    -0.9170     0.4450 ca         1 9M2      -0.175000
      4 C10          2.0760     0.0000     1.2070 cp         1 9M2      -0.076000
      5 C11          1.3800     0.0000     0.0000 ca         1 9M2      -0.033000
      6 C7           3.5580     0.0010     1.2120 cp         1 9M2      -0.065000
      7 C6           4.2450     0.9400     2.0030 ca         1 9M2      -0.054000
      8 N1           7.8160    -1.2050     0.2060 na         1 9M2       0.552800
      9 C5           5.5970     0.9830     2.0430 ca         1 9M2      -0.091000
     10 C4           6.3540     0.0650     1.2810 ca         1 9M2       0.002000
     11 C13         -0.6970     0.0040     1.1980 ca         1 9M2       0.142900
     12 C14         -0.0150     0.0100     2.4020 ca         1 9M2      -0.249000
     13 C15          1.3710     0.0100     2.4140 ca         1 9M2       0.186100
     14 N2           7.6460    -0.1460     1.1050 nc         1 9M2      -0.447400
     15 C3           6.6220    -1.6670    -0.1890 cc         1 9M2      -0.265300
     16 C2           6.3830    -2.8000    -1.1520 c3         1 9M2       0.244000
     17 N            6.0700    -2.2560    -2.4810 n3         1 9M2      -0.537600
     18 C1           7.2290    -1.5540    -3.0480 c3         1 9M2       0.180600
     19 C            5.6020    -3.3140    -3.3860 c3         1 9M2       0.180600
     20 O            2.0410     0.0150     3.5960 os         1 9M2      -0.296900
     21 C16          1.2550     0.0200     4.7890 c3         1 9M2       0.192400
     22 C17          2.1780     0.0250     6.0090 c3         1 9M2       0.074900
     23 C18          1.3480     0.0290     7.2660 cc         1 9M2      -0.327600
     24 C22          0.8900     1.1620     7.9460 cc         1 9M2       0.375600
     25 C23          1.1400     2.5930     7.5460 c3         1 9M2      -0.005400
     26 N4           0.2060     0.7660     8.9880 nd         1 9M2      -0.650800
     27 N3           0.2080    -0.6350     9.0050 na         1 9M2       0.493400
     28 C21         -0.4440    -1.4860    10.0040 c3         1 9M2       0.022600
     29 C19          0.9110    -1.0630     7.9360 cd         1 9M2      -0.227600
     30 C20          1.1670    -2.4990     7.5560 c3         1 9M2       0.093200
     31 H1          -0.5400    -0.0000    -0.9390 ha         1 9M2       0.120000
     32 H2           3.6970    -1.7230    -0.0430 ha         1 9M2       0.106000
     33 H3           1.9210    -0.0030    -0.9380 ha         1 9M2       0.116000
     34 H4           3.6770     1.6470     2.5960 ha         1 9M2       0.110000
     35 H5           8.6990    -1.5660    -0.0950 hn         1 9M2       0.137700
     36 H6           6.0980     1.7180     2.6620 ha         1 9M2       0.111000
     37 H7          -0.5650     0.0150     3.3350 ha         1 9M2       0.138000
     38 H8           7.2720    -3.4150    -1.2130 h1         1 9M2       0.014200
     39 H9           5.5520    -3.4000    -0.8030 h1         1 9M2       0.014200
     40 H11          7.3440    -0.5930    -2.5610 h1         1 9M2       0.002533
     41 H12          7.0770    -1.4050    -4.1100 h1         1 9M2       0.002533
     42 H13          8.1230    -2.1470    -2.8910 h1         1 9M2       0.002533
     43 H14          4.7780    -3.8450    -2.9250 h1         1 9M2       0.002533
     44 H15          5.2700    -2.8710    -4.3170 h1         1 9M2       0.002533
     45 H16          6.4120    -4.0060    -3.5830 h1         1 9M2       0.002533
     46 H17          0.6290     0.9040     4.8060 h1         1 9M2       0.005700
     47 H18          0.6300    -0.8650     4.8130 h1         1 9M2       0.005700
     48 H19          2.8020     0.9100     5.9850 hc         1 9M2       0.024700
     49 H20          2.8040    -0.8590     5.9920 hc         1 9M2       0.024700
     50 H21          0.6500     2.7950     6.6010 hc         1 9M2       0.011700
     51 H22          0.7450     3.2550     8.3070 hc         1 9M2       0.011700
     52 H23          2.2060     2.7580     7.4420 hc         1 9M2       0.011700
     53 H24         -0.9840    -0.8660    10.7090 h1         1 9M2       0.021367
     54 H25          0.3060    -2.0630    10.5310 h1         1 9M2       0.021367
     55 H26         -1.1350    -2.1580     9.5100 h1         1 9M2       0.021367
     56 H27          0.3880    -2.8390     6.8850 hc         1 9M2       0.013367
     57 H28          1.1680    -3.1140     8.4480 hc         1 9M2       0.013367
     58 H29          2.1280    -2.5770     7.0630 hc         1 9M2       0.013367
     59 F           -2.0480     0.0030     1.1900 f          1 9M2      -0.130900
@<TRIPOS>BOND
     1     1     5 ar  
     2     1    11 ar  
     3     1    31 1   
     4     2     3 ar  
     5     2     6 ar  
     6     2    32 1   
     7     3    10 ar  
     8     3    15 2   
     9     4     5 ar  
    10     4     6 1   
    11     4    13 ar  
    12     5    33 1   
    13     6     7 ar  
    14     7     9 ar  
    15     7    34 1   
    16     8    14 1   
    17     8    15 1   
    18     8    35 1   
    19     9    10 ar  
    20     9    36 1   
    21    10    14 2   
    22    11    12 ar  
    23    11    59 1   
    24    12    13 ar  
    25    12    37 1   
    26    13    20 1   
    27    15    16 1   
    28    16    17 1   
    29    16    38 1   
    30    16    39 1   
    31    17    18 1   
    32    17    19 1   
    33    18    40 1   
    34    18    41 1   
    35    18    42 1   
    36    19    43 1   
    37    19    44 1   
    38    19    45 1   
    39    20    21 1   
    40    21    22 1   
    41    21    46 1   
    42    21    47 1   
    43    22    23 1   
    44    22    48 1   
    45    22    49 1   
    46    23    24 1   
    47    23    29 2   
    48    24    25 1   
    49    24    26 2   
    50    25    50 1   
    51    25    51 1   
    52    25    52 1   
    53    26    27 1   
    54    27    28 1   
    55    27    29 1   
    56    28    53 1   
    57    28    54 1   
    58    28    55 1   
    59    29    30 1   
    60    30    56 1   
    61    30    57 1   
    62    30    58 1   
@<TRIPOS>SUBSTRUCTURE
     1 9M2         1 TEMP              0 ****  ****    0 ROOT
