@<TRIPOS>MOLECULE
9M3
   77    81     1     0     0
SMALL
bcc


@<TRIPOS>ATOM
      1 C5           0.0000     0.0000     0.0000 ca         1 9M3      -0.098000
      2 C6           1.3820     0.0000     0.0000 ca         1 9M3      -0.083000
      3 C2           1.3910     0.0020     2.4040 ca         1 9M3      -0.080300
      4 C4          -0.6950     0.0010     1.1920 ca         1 9M3      -0.069000
      5 O43          3.5440     1.2820    -0.6160 o          1 9M3      -0.636100
      6 C31          4.1500     0.6370     0.2170 c          1 9M3       0.587700
      7 C32          5.6250     0.5490     0.1550 ca         1 9M3      -0.170600
      8 C37          6.3230     1.2080    -0.8590 ca         1 9M3      -0.053500
      9 C36          7.6990     1.1230    -0.9120 ca         1 9M3      -0.119000
     10 C35          8.3870     0.3880     0.0370 ca         1 9M3      -0.049300
     11 C38          9.8900     0.3000    -0.0270 c3         1 9M3      -0.019700
     12 C42         10.4000    -0.5660     1.1270 c3         1 9M3       0.005567
     13 C41         10.3080    -0.3280    -1.3590 c3         1 9M3       0.005567
     14 C39         10.4880     1.7030     0.0850 c3         1 9M3       0.005567
     15 C34          7.7000    -0.2670     1.0440 ca         1 9M3      -0.119000
     16 C33          6.3250    -0.1860     1.1120 ca         1 9M3      -0.053500
     17 C7           2.0800     0.0000     1.2010 ca         1 9M3      -0.094400
     18 C1           2.1460    -0.0040     3.7080 c3         1 9M3       0.055200
     19 C3          -0.0020    -0.0030     2.4020 cp         1 9M3      -0.141500
     20 C13         -0.7470    -0.0030     3.6860 cp         1 9M3       0.789500
     21 N8          -1.7380     0.8630     3.8780 nb         1 9M3      -0.774000
     22 N12         -0.4270    -0.8710     4.6410 nb         1 9M3      -0.784000
     23 C11         -1.0950    -0.8700     5.7900 ca         1 9M3       0.764900
     24 N10         -2.0830    -0.0030     5.9840 nb         1 9M3      -0.811000
     25 C9          -2.4060     0.8630     5.0280 ca         1 9M3       0.764900
     26 N14         -3.4350     1.7600     5.2280 nv         1 9M3      -0.475500
     27 N24         -0.7620    -1.7730     6.7820 nu         1 9M3      -0.269300
     28 C16         -1.4830    -1.7930     7.9740 ca         1 9M3       0.012600
     29 C21         -2.0310    -0.6150     8.4750 ca         1 9M3      -0.136000
     30 C20         -2.7430    -0.6330     9.6530 ca         1 9M3      -0.053500
     31 C19         -2.9150    -1.8340    10.3460 ca         1 9M3      -0.169600
     32 C18         -2.3640    -3.0150     9.8410 ca         1 9M3      -0.053500
     33 C17         -1.6580    -2.9920     8.6600 ca         1 9M3      -0.136000
     34 C22         -3.6780    -1.8560    11.6090 c          1 9M3       0.616700
     35 O29         -4.4470    -2.7690    11.8390 o          1 9M3      -0.645100
     36 N23         -3.5220    -0.8630    12.5080 n          1 9M3      -0.148800
     37 C28         -4.1860    -0.9190    13.8200 c3         1 9M3      -0.012500
     38 C27         -3.1350    -0.6520    14.9040 c3         1 9M3       0.198900
     39 O26         -2.4370     0.5580    14.5960 os         1 9M3      -0.406600
     40 C25         -1.7060     0.5150    13.3680 c3         1 9M3       0.198900
     41 C24         -2.6790     0.3050    12.2080 c3         1 9M3      -0.012500
     42 H1          -0.5400     0.0020    -0.9390 ha         1 9M3       0.106000
     43 H2           1.9220    -0.0010    -0.9390 ha         1 9M3       0.140000
     44 H3          -1.7780    -0.0010     1.1880 ha         1 9M3       0.112000
     45 H4           5.7860     1.7840    -1.6030 ha         1 9M3       0.113000
     46 H5           8.2420     1.6330    -1.6980 ha         1 9M3       0.118500
     47 H6          10.1050    -0.1220     2.0700 hc         1 9M3       0.008144
     48 H7           9.9760    -1.5600     1.0480 hc         1 9M3       0.008144
     49 H8          11.4800    -0.6300     1.0800 hc         1 9M3       0.008144
     50 H9          11.3660    -0.5560    -1.3340 hc         1 9M3       0.008144
     51 H10          9.7450    -1.2390    -1.5210 hc         1 9M3       0.008144
     52 H11         10.1080     0.3680    -2.1640 hc         1 9M3       0.008144
     53 H12         11.5610     1.6290     0.2120 hc         1 9M3       0.008144
     54 H13         10.2680     2.2620    -0.8160 hc         1 9M3       0.008144
     55 H14         10.0580     2.2120     0.9390 hc         1 9M3       0.008144
     56 H15          8.2450    -0.8390     1.7850 ha         1 9M3       0.118500
     57 H16          5.7900    -0.6990     1.9020 ha         1 9M3       0.113000
     58 H17          3.9780    -0.3810     1.9760 hn         1 9M3       0.178500
     59 H18          2.3200    -1.0260     4.0200 hc         1 9M3       0.011700
     60 H19          1.5640     0.5100     4.4640 hc         1 9M3       0.011700
     61 H20          3.0950     0.5020     3.5780 hc         1 9M3       0.011700
     62 H21         -3.6020     2.4870     4.5600 hn         1 9M3       0.277800
     63 H22         -4.0360     1.6630     6.0230 hn         1 9M3       0.277800
     64 H23          0.0280    -2.3760     6.6650 hn         1 9M3       0.295800
     65 H24         -1.8970     0.3150     7.9370 ha         1 9M3       0.131000
     66 H25         -3.1690     0.2840    10.0420 ha         1 9M3       0.120000
     67 H26         -2.4980    -3.9480    10.3750 ha         1 9M3       0.120000
     68 H27         -1.2300    -3.9060     8.2670 ha         1 9M3       0.131000
     69 H28         -4.9590    -0.1620    13.8690 h1         1 9M3       0.045950
     70 H29         -4.6180    -1.9010    13.9680 h1         1 9M3       0.045950
     71 H30         -3.6250    -0.5500    15.8650 h1         1 9M3       0.014700
     72 H31         -2.4320    -1.4760    14.9360 h1         1 9M3       0.014700
     73 H32         -0.9990    -0.3050    13.3990 h1         1 9M3       0.014700
     74 H33         -1.1770     1.4500    13.2310 h1         1 9M3       0.014700
     75 H34         -3.3030     1.1830    12.0940 h1         1 9M3       0.045950
     76 H35         -2.1220     0.1260    11.2960 h1         1 9M3       0.045950
     77 N30          3.4790    -0.0000     1.1970 ns         1 9M3      -0.039100
@<TRIPOS>BOND
     1     1     2 ar  
     2     1     4 ar  
     3     1    42 1   
     4     2    17 ar  
     5     2    43 1   
     6     3    17 ar  
     7     3    18 1   
     8     3    19 ar  
     9     4    19 ar  
    10     4    44 1   
    11     5     6 2   
    12     6     7 1   
    13     6    77 1   
    14     7     8 ar  
    15     7    16 ar  
    16     8     9 ar  
    17     8    45 1   
    18     9    10 ar  
    19     9    46 1   
    20    10    11 1   
    21    10    15 ar  
    22    11    12 1   
    23    11    13 1   
    24    11    14 1   
    25    12    47 1   
    26    12    48 1   
    27    12    49 1   
    28    13    50 1   
    29    13    51 1   
    30    13    52 1   
    31    14    53 1   
    32    14    54 1   
    33    14    55 1   
    34    15    16 ar  
    35    15    56 1   
    36    16    57 1   
    37    17    77 1   
    38    18    59 1   
    39    18    60 1   
    40    18    61 1   
    41    19    20 1   
    42    20    21 ar  
    43    20    22 ar  
    44    21    25 ar  
    45    22    23 ar  
    46    23    24 ar  
    47    23    27 1   
    48    24    25 ar  
    49    25    26 1   
    50    26    62 1   
    51    26    63 1   
    52    27    28 1   
    53    27    64 1   
    54    28    29 ar  
    55    28    33 ar  
    56    29    30 ar  
    57    29    65 1   
    58    30    31 ar  
    59    30    66 1   
    60    31    32 ar  
    61    31    34 1   
    62    32    33 ar  
    63    32    67 1   
    64    33    68 1   
    65    34    35 2   
    66    34    36 1   
    67    36    37 1   
    68    36    41 1   
    69    37    38 1   
    70    37    69 1   
    71    37    70 1   
    72    38    39 1   
    73    38    71 1   
    74    38    72 1   
    75    39    40 1   
    76    40    41 1   
    77    40    73 1   
    78    40    74 1   
    79    41    75 1   
    80    41    76 1   
    81    58    77 1   
@<TRIPOS>SUBSTRUCTURE
     1 9M3         1 TEMP              0 ****  ****    0 ROOT
