@<TRIPOS>MOLECULE
molecule
   77    81     1     0     0
SMALL
bcc


@<TRIPOS>ATOM
      1 C5           0.0000     0.0000     0.0000 ca         1 9M3      -0.126000
      2 C6           1.3820     0.0000     0.0000 ca         1 9M3      -0.106000
      3 C2           1.3910     0.0020     2.4040 ca         1 9M3      -0.077300
      4 C4          -0.6950     0.0010     1.1920 ca         1 9M3      -0.097000
      5 O43          3.5440     1.2820    -0.6160 o          1 9M3      -0.594100
      6 C31          4.1500     0.6370     0.2170 c          1 9M3       0.675700
      7 C32          5.6250     0.5490     0.1550 ca         1 9M3      -0.157600
      8 C37          6.3230     1.2080    -0.8590 ca         1 9M3      -0.082500
      9 C36          7.6990     1.1230    -0.9120 ca         1 9M3      -0.138000
     10 C35          8.3870     0.3880     0.0370 ca         1 9M3      -0.042300
     11 C38          9.8900     0.3000    -0.0270 c3         1 9M3      -0.028700
     12 C42         10.4000    -0.5660     1.1270 c3         1 9M3      -0.081100
     13 C41         10.3080    -0.3280    -1.3590 c3         1 9M3      -0.081100
     14 C39         10.4880     1.7030     0.0850 c3         1 9M3      -0.081100
     15 C34          7.7000    -0.2670     1.0440 ca         1 9M3      -0.138000
     16 C33          6.3250    -0.1860     1.1120 ca         1 9M3      -0.082500
     17 C7           2.0800     0.0000     1.2010 ca         1 9M3       0.050600
     18 C1           2.1460    -0.0040     3.7080 c3         1 9M3      -0.043800
     19 C3          -0.0020    -0.0030     2.4020 cp         1 9M3      -0.124500
     20 C13         -0.7470    -0.0030     3.6860 cp         1 9M3       0.847500
     21 N8          -1.7380     0.8630     3.8780 nb         1 9M3      -0.863000
     22 N12         -0.4270    -0.8710     4.6410 nb         1 9M3      -0.870000
     23 C11         -1.0950    -0.8700     5.7900 ca         1 9M3       0.990900
     24 N10         -2.0830    -0.0030     5.9840 nb         1 9M3      -0.903000
     25 C9          -2.4060     0.8630     5.0280 ca         1 9M3       0.995900
     26 N14         -3.4350     1.7600     5.2280 nv         1 9M3      -0.979500
     27 N24         -0.7620    -1.7730     6.7820 nu         1 9M3      -0.746300
     28 C16         -1.4830    -1.7930     7.9740 ca         1 9M3       0.175600
     29 C21         -2.0310    -0.6150     8.4750 ca         1 9M3      -0.158000
     30 C20         -2.7430    -0.6330     9.6530 ca         1 9M3      -0.080500
     31 C19         -2.9150    -1.8340    10.3460 ca         1 9M3      -0.164600
     32 C18         -2.3640    -3.0150     9.8410 ca         1 9M3      -0.080500
     33 C17         -1.6580    -2.9920     8.6600 ca         1 9M3      -0.158000
     34 C22         -3.6780    -1.8560    11.6090 c          1 9M3       0.681700
     35 O29         -4.4470    -2.7690    11.8390 o          1 9M3      -0.605100
     36 N23         -3.5220    -0.8630    12.5080 n          1 9M3      -0.491800
     37 C28         -4.1860    -0.9190    13.8200 c3         1 9M3       0.060000
     38 C27         -3.1350    -0.6520    14.9040 c3         1 9M3       0.119900
     39 O26         -2.4370     0.5580    14.5960 os         1 9M3      -0.420600
     40 C25         -1.7060     0.5150    13.3680 c3         1 9M3       0.119900
     41 C24         -2.6790     0.3050    12.2080 c3         1 9M3       0.060000
     42 H1          -0.5400     0.0020    -0.9390 ha         1 9M3       0.138000
     43 H2           1.9220    -0.0010    -0.9390 ha         1 9M3       0.163000
     44 H3          -1.7780    -0.0010     1.1880 ha         1 9M3       0.144000
     45 H4           5.7860     1.7840    -1.6030 ha         1 9M3       0.140000
     46 H5           8.2420     1.6330    -1.6980 ha         1 9M3       0.140000
     47 H6          10.1050    -0.1220     2.0700 hc         1 9M3       0.038589
     48 H7           9.9760    -1.5600     1.0480 hc         1 9M3       0.038589
     49 H8          11.4800    -0.6300     1.0800 hc         1 9M3       0.038589
     50 H9          11.3660    -0.5560    -1.3340 hc         1 9M3       0.038589
     51 H10          9.7450    -1.2390    -1.5210 hc         1 9M3       0.038589
     52 H11         10.1080     0.3680    -2.1640 hc         1 9M3       0.038589
     53 H12         11.5610     1.6290     0.2120 hc         1 9M3       0.038589
     54 H13         10.2680     2.2620    -0.8160 hc         1 9M3       0.038589
     55 H14         10.0580     2.2120     0.9390 hc         1 9M3       0.038589
     56 H15          8.2450    -0.8390     1.7850 ha         1 9M3       0.140000
     57 H16          5.7900    -0.6990     1.9020 ha         1 9M3       0.140000
     58 H17          3.9780    -0.3810     1.9760 hn         1 9M3       0.328500
     59 H18          2.3200    -1.0260     4.0200 hc         1 9M3       0.045700
     60 H19          1.5640     0.5100     4.4640 hc         1 9M3       0.045700
     61 H20          3.0950     0.5020     3.5780 hc         1 9M3       0.045700
     62 H21         -3.6020     2.4870     4.5600 hn         1 9M3       0.454800
     63 H22         -4.0360     1.6630     6.0230 hn         1 9M3       0.454800
     64 H23          0.0280    -2.3760     6.6650 hn         1 9M3       0.470800
     65 H24         -1.8970     0.3150     7.9370 ha         1 9M3       0.155500
     66 H25         -3.1690     0.2840    10.0420 ha         1 9M3       0.147000
     67 H26         -2.4980    -3.9480    10.3750 ha         1 9M3       0.147000
     68 H27         -1.2300    -3.9060     8.2670 ha         1 9M3       0.155500
     69 H28         -4.9590    -0.1620    13.8690 h1         1 9M3       0.068950
     70 H29         -4.6180    -1.9010    13.9680 h1         1 9M3       0.068950
     71 H30         -3.6250    -0.5500    15.8650 h1         1 9M3       0.054950
     72 H31         -2.4320    -1.4760    14.9360 h1         1 9M3       0.054950
     73 H32         -0.9990    -0.3050    13.3990 h1         1 9M3       0.054950
     74 H33         -1.1770     1.4500    13.2310 h1         1 9M3       0.054950
     75 H34         -3.3030     1.1830    12.0940 h1         1 9M3       0.068950
     76 H35         -2.1220     0.1260    11.2960 h1         1 9M3       0.068950
     77 N30          3.4790    -0.0000     1.1970 ns         1 9M3      -0.472100
@<TRIPOS>BOND
     1    40    39 1
     2    40    41 1
     3    39    38 1
     4    38    37 1
     5    41    36 1
     6    37    36 1
     7    36    34 1
     8    34    35 2
     9    34    31 1
    10    31    30 ar
    11    31    32 ar
    12    13    11 1
    13    30    29 ar
    14    32    33 ar
    15    12    11 1
    16    15    16 ar
    17    15    10 ar
    18    16     7 ar
    19    29    28 ar
    20    33    28 ar
    21    11    10 1
    22    11    14 1
    23    28    27 1
    24    10     9 ar
    25    77    17 1
    26    77     6 1
    27     2    17 ar
    28     2     1 ar
    29    17     3 ar
    30     1     4 ar
    31    27    23 1
    32     7     6 1
    33     7     8 ar
    34    22    23 ar
    35    22    20 ar
    36     3    18 1
    37     3    19 ar
    38     4    19 ar
    39    19    20 1
    40    23    24 ar
    41     6     5 2
    42     9     8 ar
    43    20    21 ar
    44    24    25 ar
    45    21    25 ar
    46    25    26 1
    47     1    42 1
    48     2    43 1
    49     4    44 1
    50     8    45 1
    51     9    46 1
    52    12    47 1
    53    12    48 1
    54    12    49 1
    55    13    50 1
    56    13    51 1
    57    13    52 1
    58    14    53 1
    59    14    54 1
    60    14    55 1
    61    15    56 1
    62    16    57 1
    63    77    58 1
    64    18    59 1
    65    18    60 1
    66    18    61 1
    67    26    62 1
    68    26    63 1
    69    27    64 1
    70    29    65 1
    71    30    66 1
    72    32    67 1
    73    33    68 1
    74    37    69 1
    75    37    70 1
    76    38    71 1
    77    38    72 1
    78    40    73 1
    79    40    74 1
    80    41    75 1
    81    41    76 1
@<TRIPOS>SUBSTRUCTURE
     1 9M3         1 TEMP              0 ****  ****    0 ROOT
