@<TRIPOS>MOLECULE
9M4
   72    75     1     0     0
SMALL
bcc


@<TRIPOS>ATOM
      1 C4           0.0000     0.0000     0.0000 ca         1 9M4      -0.117000
      2 C5           1.3850     0.0000     0.0000 ca         1 9M4      -0.017600
      3 C6           2.0830     0.0000     1.1960 ca         1 9M4      -0.117000
      4 C7           1.4030    -0.0000     2.3950 ca         1 9M4      -0.067500
      5 C10         -2.7620    -0.3500     4.9790 c3         1 9M4      -0.038300
      6 C15         -3.9050     2.8470     6.7440 c3         1 9M4       0.016700
      7 C17         -5.2430     4.8910     6.2180 c3         1 9M4      -0.017900
      8 C20         -4.2910     2.9740     8.2190 c3         1 9M4      -0.040400
      9 C21         -2.8380    -1.0530     7.3750 c3         1 9M4      -0.039400
     10 C22         -2.1050    -1.8250     8.4750 c3         1 9M4      -0.019400
     11 C24         -1.1370    -3.3560     6.7550 c3         1 9M4      -0.019400
     12 C26         -2.5970    -0.9810     2.5860 ca         1 9M4      -0.064400
     13 C28         -2.6030    -2.5950     0.8090 ca         1 9M4      -0.073400
     14 O32         -0.1860     0.3980     4.6960 o          1 9M4      -0.618100
     15 C2           0.0070     0.0010     2.4020 ca         1 9M4      -0.150600
     16 C3          -0.6910     0.0070     1.1930 ca         1 9M4      -0.067500
     17 Cl8          2.2490    -0.0020    -1.5060 cl         1 9M4      -0.029400
     18 N9          -2.0020    -0.4390     3.7300 n          1 9M4       0.011000
     19 C11         -2.0300    -1.1230     6.0780 c3         1 9M4      -0.083700
     20 C23         -1.9450    -3.2870     8.0510 c3         1 9M4      -0.025400
     21 C25         -1.8700    -2.5840     5.6550 c3         1 9M4      -0.039400
     22 C12         -2.8950     1.0950     5.3840 c          1 9M4       0.567100
     23 O13         -2.2820     1.9520     4.7850 o          1 9M4      -0.622100
     24 N14         -3.6980     1.4350     6.4130 ns         1 9M4      -0.214900
     25 C16         -5.0260     3.4160     5.8720 c3         1 9M4      -0.040400
     26 C18         -5.6290     5.0170     7.6940 c3         1 9M4      -0.028400
     27 C19         -4.5070     4.4480     8.5650 c3         1 9M4      -0.017900
     28 C27         -2.0070    -2.0570     1.9400 ca         1 9M4      -0.150000
     29 C29         -3.7880    -2.0550     0.3260 ca         1 9M4      -0.110000
     30 C30         -4.3710    -0.9790     0.9700 ca         1 9M4      -0.066000
     31 C31         -3.7830    -0.4450     2.0990 ca         1 9M4      -0.140000
     32 N33         -2.0140    -3.6840     0.1570 ns         1 9M4      -0.040100
     33 C34         -2.7890    -4.6340    -0.4030 c          1 9M4       0.561100
     34 O36         -3.9940    -4.5000    -0.4230 o          1 9M4      -0.633100
     35 C35         -2.1580    -5.8640    -1.0040 c3         1 9M4      -0.068100
     36 H1          -0.5410     0.0020    -0.9390 ha         1 9M4       0.116500
     37 H2           3.1670    -0.0000     1.1890 ha         1 9M4       0.116500
     38 H3           1.9510    -0.0000     3.3300 ha         1 9M4       0.139500
     39 H4          -3.7480    -0.7760     4.8330 h1         1 9M4       0.049700
     40 H5          -2.9930     3.4020     6.5630 h1         1 9M4       0.066700
     41 H7          -4.3270     5.4410     6.0370 hc         1 9M4       0.016950
     42 H8          -3.4940     2.5730     8.8340 hc         1 9M4       0.018450
     43 H9          -5.2060     2.4240     8.4000 hc         1 9M4       0.018450
     44 H10         -3.8140    -1.4950     7.2150 hc         1 9M4       0.019450
     45 H11         -2.9490    -0.0180     7.6750 hc         1 9M4       0.019450
     46 H12         -2.6790    -1.7770     9.3920 hc         1 9M4       0.016450
     47 H13         -1.1270    -1.3870     8.6310 hc         1 9M4       0.016450
     48 H14         -0.1610    -2.9150     6.9150 hc         1 9M4       0.016450
     49 H15         -1.0270    -4.3910     6.4540 hc         1 9M4       0.016450
     50 H16         -1.7750     0.0070     1.1920 ha         1 9M4       0.139500
     51 H17         -1.0520    -0.6870     6.2420 hc         1 9M4       0.090700
     52 H18         -1.4250    -3.8320     8.8290 hc         1 9M4       0.013200
     53 H19         -2.9230    -3.7240     7.8900 hc         1 9M4       0.013200
     54 H20         -2.8480    -3.0220     5.4980 hc         1 9M4       0.019450
     55 H21         -1.2950    -2.6320     4.7380 hc         1 9M4       0.019450
     56 H22         -4.2020     0.7260     6.9080 hn         1 9M4       0.192500
     57 H23         -4.7510     3.3290     4.8280 hc         1 9M4       0.018450
     58 H24         -5.9410     2.8660     6.0570 hc         1 9M4       0.018450
     59 H25         -6.5420     4.4630     7.8760 hc         1 9M4       0.013700
     60 H26         -5.7800     6.0620     7.9380 hc         1 9M4       0.013700
     61 H27         -4.7830     4.5360     9.6090 hc         1 9M4       0.016950
     62 H28         -3.5930     5.0000     8.3800 hc         1 9M4       0.016950
     63 H29         -1.0830    -2.4780     2.3180 ha         1 9M4       0.124000
     64 H30         -4.2530    -2.4730    -0.5590 ha         1 9M4       0.150000
     65 H31         -5.2950    -0.5590     0.5910 ha         1 9M4       0.109000
     66 H32         -4.2420     0.3980     2.6010 ha         1 9M4       0.119000
     67 H33         -1.0170    -3.7520     0.0970 hn         1 9M4       0.172500
     68 H34         -2.8980    -6.4050    -1.5810 hc         1 9M4       0.025700
     69 H35         -1.7810    -6.5000    -0.2120 hc         1 9M4       0.025700
     70 H36         -1.3400    -5.5700    -1.6510 hc         1 9M4       0.025700
     71 C1          -0.7290     0.0010     3.6840 c          1 9M4       0.618700
     72 H6          -6.0390     5.2920     5.6020 hc         1 9M4       0.016950
@<TRIPOS>BOND
     1     1     2 ar  
     2     1    16 ar  
     3     1    36 1   
     4     2     3 ar  
     5     2    17 1   
     6     3     4 ar  
     7     3    37 1   
     8     4    15 ar  
     9     4    38 1   
    10     5    18 1   
    11     5    19 1   
    12     5    22 1   
    13     5    39 1   
    14     6     8 1   
    15     6    24 1   
    16     6    25 1   
    17     6    40 1   
    18     7    25 1   
    19     7    26 1   
    20     7    41 1   
    21     7    72 1   
    22     8    27 1   
    23     8    42 1   
    24     8    43 1   
    25     9    10 1   
    26     9    19 1   
    27     9    44 1   
    28     9    45 1   
    29    10    20 1   
    30    10    46 1   
    31    10    47 1   
    32    11    20 1   
    33    11    21 1   
    34    11    48 1   
    35    11    49 1   
    36    12    18 1   
    37    12    28 ar  
    38    12    31 ar  
    39    13    28 ar  
    40    13    29 ar  
    41    13    32 1   
    42    14    71 2   
    43    15    16 ar  
    44    15    71 1   
    45    16    50 1   
    46    18    71 1   
    47    19    21 1   
    48    19    51 1   
    49    20    52 1   
    50    20    53 1   
    51    21    54 1   
    52    21    55 1   
    53    22    23 2   
    54    22    24 1   
    55    24    56 1   
    56    25    57 1   
    57    25    58 1   
    58    26    27 1   
    59    26    59 1   
    60    26    60 1   
    61    27    61 1   
    62    27    62 1   
    63    28    63 1   
    64    29    30 ar  
    65    29    64 1   
    66    30    31 ar  
    67    30    65 1   
    68    31    66 1   
    69    32    33 1   
    70    32    67 1   
    71    33    34 2   
    72    33    35 1   
    73    35    68 1   
    74    35    69 1   
    75    35    70 1   
@<TRIPOS>SUBSTRUCTURE
     1 9M4         1 TEMP              0 ****  ****    0 ROOT
