@<TRIPOS>MOLECULE
molecule
   72    75     1     0     0
SMALL
bcc


@<TRIPOS>ATOM
      1 C4           0.0000     0.0000     0.0000 ca         1 9M4      -0.142000
      2 C5           1.3850     0.0000     0.0000 ca         1 9M4       0.046400
      3 C6           2.0830     0.0000     1.1960 ca         1 9M4      -0.142000
      4 C7           1.4030    -0.0000     2.3950 ca         1 9M4      -0.079500
      5 C10         -2.7620    -0.3500     4.9790 c3         1 9M4       0.058700
      6 C15         -3.9050     2.8470     6.7440 c3         1 9M4       0.114700
      7 C17         -5.2430     4.8910     6.2180 c3         1 9M4      -0.076400
      8 C20         -4.2910     2.9740     8.2190 c3         1 9M4      -0.093900
      9 C21         -2.8380    -1.0530     7.3750 c3         1 9M4      -0.083400
     10 C22         -2.1050    -1.8250     8.4750 c3         1 9M4      -0.076400
     11 C24         -1.1370    -3.3560     6.7550 c3         1 9M4      -0.076400
     12 C26         -2.5970    -0.9810     2.5860 ca         1 9M4       0.064600
     13 C28         -2.6030    -2.5950     0.8090 ca         1 9M4       0.068600
     14 O32         -0.1860     0.3980     4.6960 o          1 9M4      -0.577100
     15 C2           0.0070     0.0010     2.4020 ca         1 9M4      -0.145600
     16 C3          -0.6910     0.0070     1.1930 ca         1 9M4      -0.079500
     17 Cl8          2.2490    -0.0020    -1.5060 cl         1 9M4      -0.110400
     18 N9          -2.0020    -0.4390     3.7300 n          1 9M4      -0.378000
     19 C11         -2.0300    -1.1230     6.0780 c3         1 9M4      -0.088700
     20 C23         -1.9450    -3.2870     8.0510 c3         1 9M4      -0.081400
     21 C25         -1.8700    -2.5840     5.6550 c3         1 9M4      -0.083400
     22 C12         -2.8950     1.0950     5.3840 c          1 9M4       0.647100
     23 O13         -2.2820     1.9520     4.7850 o          1 9M4      -0.583100
     24 N14         -3.6980     1.4350     6.4130 ns         1 9M4      -0.589900
     25 C16         -5.0260     3.4160     5.8720 c3         1 9M4      -0.093900
     26 C18         -5.6290     5.0170     7.6940 c3         1 9M4      -0.083400
     27 C19         -4.5070     4.4480     8.5650 c3         1 9M4      -0.076400
     28 C27         -2.0070    -2.0570     1.9400 ca         1 9M4      -0.179000
     29 C29         -3.7880    -2.0550     0.3260 ca         1 9M4      -0.137000
     30 C30         -4.3710    -0.9790     0.9700 ca         1 9M4      -0.101000
     31 C31         -3.7830    -0.4450     2.0990 ca         1 9M4      -0.170000
     32 N33         -2.0140    -3.6840     0.1570 ns         1 9M4      -0.481100
     33 C34         -2.7890    -4.6340    -0.4030 c          1 9M4       0.659100
     34 O36         -3.9940    -4.5000    -0.4230 o          1 9M4      -0.593100
     35 C35         -2.1580    -5.8640    -1.0040 c3         1 9M4      -0.170100
     36 H1          -0.5410     0.0020    -0.9390 ha         1 9M4       0.147500
     37 H2           3.1670    -0.0000     1.1890 ha         1 9M4       0.147500
     38 H3           1.9510    -0.0000     3.3300 ha         1 9M4       0.163000
     39 H4          -3.7480    -0.7760     4.8330 h1         1 9M4       0.077700
     40 H5          -2.9930     3.4020     6.5630 h1         1 9M4       0.087700
     41 H7          -4.3270     5.4410     6.0370 hc         1 9M4       0.045450
     42 H8          -3.4940     2.5730     8.8340 hc         1 9M4       0.045700
     43 H9          -5.2060     2.4240     8.4000 hc         1 9M4       0.045700
     44 H10         -3.8140    -1.4950     7.2150 hc         1 9M4       0.044200
     45 H11         -2.9490    -0.0180     7.6750 hc         1 9M4       0.044200
     46 H12         -2.6790    -1.7770     9.3920 hc         1 9M4       0.044200
     47 H13         -1.1270    -1.3870     8.6310 hc         1 9M4       0.044200
     48 H14         -0.1610    -2.9150     6.9150 hc         1 9M4       0.044200
     49 H15         -1.0270    -4.3910     6.4540 hc         1 9M4       0.044200
     50 H16         -1.7750     0.0070     1.1920 ha         1 9M4       0.163000
     51 H17         -1.0520    -0.6870     6.2420 hc         1 9M4       0.104700
     52 H18         -1.4250    -3.8320     8.8290 hc         1 9M4       0.040700
     53 H19         -2.9230    -3.7240     7.8900 hc         1 9M4       0.040700
     54 H20         -2.8480    -3.0220     5.4980 hc         1 9M4       0.044200
     55 H21         -1.2950    -2.6320     4.7380 hc         1 9M4       0.044200
     56 H22         -4.2020     0.7260     6.9080 hn         1 9M4       0.318500
     57 H23         -4.7510     3.3290     4.8280 hc         1 9M4       0.045700
     58 H24         -5.9410     2.8660     6.0570 hc         1 9M4       0.045700
     59 H25         -6.5420     4.4630     7.8760 hc         1 9M4       0.041700
     60 H26         -5.7800     6.0620     7.9380 hc         1 9M4       0.041700
     61 H27         -4.7830     4.5360     9.6090 hc         1 9M4       0.045450
     62 H28         -3.5930     5.0000     8.3800 hc         1 9M4       0.045450
     63 H29         -1.0830    -2.4780     2.3180 ha         1 9M4       0.145000
     64 H30         -4.2530    -2.4730    -0.5590 ha         1 9M4       0.170000
     65 H31         -5.2950    -0.5590     0.5910 ha         1 9M4       0.141000
     66 H32         -4.2420     0.3980     2.6010 ha         1 9M4       0.145000
     67 H33         -1.0170    -3.7520     0.0970 hn         1 9M4       0.328500
     68 H34         -2.8980    -6.4050    -1.5810 hc         1 9M4       0.064700
     69 H35         -1.7810    -6.5000    -0.2120 hc         1 9M4       0.064700
     70 H36         -1.3400    -5.5700    -1.6510 hc         1 9M4       0.064700
     71 C1          -0.7290     0.0010     3.6840 c          1 9M4       0.696700
     72 H6          -6.0390     5.2920     5.6020 hc         1 9M4       0.045450
@<TRIPOS>BOND
     1    10    20 1
     2    10     9 1
     3    20    11 1
     4     9    19 1
     5     7    25 1
     6     7    26 1
     7    25     6 1
     8    11    21 1
     9    26    27 1
    10    19    21 1
    11    19     5 1
    12     6    24 1
    13     6     8 1
    14    23    22 2
    15    24    22 1
    16    22     5 1
    17     5    18 1
    18    27     8 1
    19    34    33 2
    20    35    33 1
    21    33    32 1
    22    18    12 1
    23    18    71 1
    24    28    12 ar
    25    28    13 ar
    26    12    31 ar
    27    32    13 1
    28    14    71 2
    29    13    29 ar
    30    71    15 1
    31    31    30 ar
    32    29    30 ar
    33    15     4 ar
    34    15    16 ar
    35     4     3 ar
    36    16     1 ar
    37     3     2 ar
    38     1     2 ar
    39     2    17 1
    40     1    36 1
    41     3    37 1
    42     4    38 1
    43     5    39 1
    44     6    40 1
    45     7    72 1
    46     7    41 1
    47     8    42 1
    48     8    43 1
    49     9    44 1
    50     9    45 1
    51    10    46 1
    52    10    47 1
    53    11    48 1
    54    11    49 1
    55    16    50 1
    56    19    51 1
    57    20    52 1
    58    20    53 1
    59    21    54 1
    60    21    55 1
    61    24    56 1
    62    25    57 1
    63    25    58 1
    64    26    59 1
    65    26    60 1
    66    27    61 1
    67    27    62 1
    68    28    63 1
    69    29    64 1
    70    30    65 1
    71    31    66 1
    72    32    67 1
    73    35    68 1
    74    35    69 1
    75    35    70 1
@<TRIPOS>SUBSTRUCTURE
     1 9M4         1 TEMP              0 ****  ****    0 ROOT
