@<TRIPOS>MOLECULE
9M8
   62    65     1     0     0
SMALL
bcc


@<TRIPOS>ATOM
      1 C1           0.0000     0.0000     0.0000 c3         1 9M8       0.177100
      2 C2           1.9950     1.1380    -0.7670 c3         1 9M8       0.161500
      3 C3           3.4810     0.9730    -0.9540 cc         1 9M8       0.389900
      4 C5           5.7500     1.0820    -0.6250 ca         1 9M8      -0.163200
      5 C10          4.5210     1.4620    -0.0530 ca         1 9M8      -0.259900
      6 C11          5.6980     3.2370     3.0520 cp         1 9M8      -0.024000
      7 C15          6.8320    -2.0440     4.5430 cc         1 9M8      -0.324600
      8 C16          6.1370    -2.8420     3.6990 cd         1 9M8      -0.227600
      9 C17          5.9030    -2.5920     2.2310 c3         1 9M8       0.090200
     10 C19          6.8100    -2.6370     5.8100 cc         1 9M8       0.375600
     11 C20          7.4610    -2.0870     7.0540 c3         1 9M8      -0.005400
     12 C23          4.9500     5.1020     4.3670 ca         1 9M8      -0.085000
     13 C24          4.9520     4.4070     3.1750 ca         1 9M8      -0.099000
     14 C6           6.9430     1.4170     0.0150 ca         1 9M8      -0.126000
     15 C7           6.9200     2.1090     1.1890 ca         1 9M8      -0.032000
     16 C8           5.7040     2.4870     1.7720 cp         1 9M8      -0.081000
     17 C9           4.5050     2.1690     1.1530 ca         1 9M8      -0.018000
     18 C13          6.5360     0.4110     4.3680 c3         1 9M8       0.207400
     19 C14          7.5140    -0.7500     4.1810 c3         1 9M8       0.072900
     20 C21          6.4370     3.4840     5.3310 ca         1 9M8       0.086900
     21 C22          5.6880     4.6410     5.4430 ca         1 9M8      -0.127000
     22 C12          6.4470     2.7760     4.1380 ca         1 9M8       0.101100
     23 F            7.1600     3.0430     6.3840 f          1 9M8      -0.121900
     24 O            7.1830     1.6380     4.0250 os         1 9M8      -0.327900
     25 N4           6.1270    -3.7500     5.7300 nd         1 9M8      -0.653800
     26 N3           5.6910    -3.9010     4.4070 na         1 9M8       0.491400
     27 N2           5.4560     0.4110    -1.7830 na         1 9M8       0.449900
     28 N1           4.0680     0.3650    -1.9450 nd         1 9M8      -0.599100
     29 N            1.4690     0.0000     0.0000 n3         1 9M8      -0.538600
     30 C            1.9960     0.0000     1.3710 c3         1 9M8       0.177100
     31 H1          -0.3610    -0.8790     0.5200 h1         1 9M8       0.002867
     32 H2          -0.3610     0.8900     0.5010 h1         1 9M8       0.002867
     33 H3          -0.3610    -0.0110    -1.0210 h1         1 9M8       0.002867
     34 H4           1.7980     2.0570    -0.2290 h1         1 9M8       0.017700
     35 H5           1.5110     1.1750    -1.7350 h1         1 9M8       0.017700
     36 H6           7.0620     0.6220    -3.1070 h1         1 9M8       0.017700
     37 H7           5.9220    -0.6680    -3.5150 h1         1 9M8       0.017700
     38 H8           7.0550    -0.8810    -2.1730 h1         1 9M8       0.017700
     39 H9           5.0440    -1.9440     2.1080 hc         1 9M8       0.014367
     40 H10          5.7200    -3.5340     1.7300 hc         1 9M8       0.014367
     41 H11          6.7780    -2.1190     1.8020 hc         1 9M8       0.014367
     42 H12          4.6540    -5.6960     4.6900 h1         1 9M8       0.021033
     43 H13          5.4600    -5.5380     3.1240 h1         1 9M8       0.021033
     44 H14          3.9780    -4.6290     3.4510 h1         1 9M8       0.021033
     45 H15          6.9050    -1.2260     7.4030 hc         1 9M8       0.012367
     46 H16          8.4790    -1.7920     6.8290 hc         1 9M8       0.012367
     47 H17          7.4690    -2.8490     7.8250 hc         1 9M8       0.012367
     48 H18          4.3670     6.0100     4.4620 ha         1 9M8       0.108000
     49 H19          4.3730     4.7700     2.3350 ha         1 9M8       0.113000
     50 H20          7.8910     1.1310    -0.4240 ha         1 9M8       0.107000
     51 H21          7.8510     2.3800     1.6700 ha         1 9M8       0.119000
     52 H22          3.5770     2.5860     1.5240 ha         1 9M8       0.109000
     53 H23          5.6750     0.2650     3.7280 h1         1 9M8       0.001200
     54 H24          6.2150     0.4490     5.4020 h1         1 9M8       0.001200
     55 H25          7.8360    -0.7880     3.1470 hc         1 9M8       0.023200
     56 H26          8.3750    -0.6040     4.8220 hc         1 9M8       0.023200
     57 H27          5.6820     5.1920     6.3760 ha         1 9M8       0.120000
     58 H29          1.4700    -0.7420     1.9600 h1         1 9M8       0.002867
     59 H30          3.0530    -0.2370     1.3520 h1         1 9M8       0.002867
     60 H31          1.8530     0.9790     1.8130 h1         1 9M8       0.002867
     61 C4           6.4380    -0.1670    -2.7050 c3         1 9M8       0.037600
     62 C18          4.8940    -5.0140     3.8840 c3         1 9M8       0.022600
@<TRIPOS>BOND
     1     1    29 1   
     2     1    31 1   
     3     1    32 1   
     4     1    33 1   
     5     2     3 1   
     6     2    29 1   
     7     2    34 1   
     8     2    35 1   
     9     3     5 1   
    10     3    28 2   
    11     4     5 ar  
    12     4    14 ar  
    13     4    27 1   
    14     5    17 ar  
    15     6    13 ar  
    16     6    16 1   
    17     6    22 ar  
    18     7     8 2   
    19     7    10 1   
    20     7    19 1   
    21     8     9 1   
    22     8    26 1   
    23     9    39 1   
    24     9    40 1   
    25     9    41 1   
    26    10    11 1   
    27    10    25 2   
    28    11    45 1   
    29    11    46 1   
    30    11    47 1   
    31    12    13 ar  
    32    12    21 ar  
    33    12    48 1   
    34    13    49 1   
    35    14    15 ar  
    36    14    50 1   
    37    15    16 ar  
    38    15    51 1   
    39    16    17 ar  
    40    17    52 1   
    41    18    19 1   
    42    18    24 1   
    43    18    53 1   
    44    18    54 1   
    45    19    55 1   
    46    19    56 1   
    47    20    21 ar  
    48    20    22 ar  
    49    20    23 1   
    50    21    57 1   
    51    22    24 1   
    52    25    26 1   
    53    26    62 1   
    54    27    28 1   
    55    27    61 1   
    56    29    30 1   
    57    30    58 1   
    58    30    59 1   
    59    30    60 1   
    60    36    61 1   
    61    37    61 1   
    62    38    61 1   
    63    42    62 1   
    64    43    62 1   
    65    44    62 1   
@<TRIPOS>SUBSTRUCTURE
     1 9M8         1 TEMP              0 ****  ****    0 ROOT
