@<TRIPOS>MOLECULE
9M9
   39    41     1     0     0
SMALL
bcc


@<TRIPOS>ATOM
      1 N01          0.0000     0.0000     0.0000 nb         1 9M9      -0.581000
      2 C02          1.3170     0.0000     0.0000 ca         1 9M9       0.517200
      3 N02          1.9940    -0.0010    -1.2100 nv         1 9M9      -0.663500
      4 C03          2.0510     0.0000     1.1960 ca         1 9M9      -0.209300
      5 C04          1.3990     0.0010     2.3920 ca         1 9M9      -0.054000
      6 C05         -0.0110     0.0010     2.3840 ca         1 9M9      -0.144300
      7 C06         -0.7450     0.0020     3.5800 ca         1 9M9      -0.069000
      8 C07         -2.1060     0.0030     3.5350 ca         1 9M9      -0.092000
      9 C08         -2.7800     0.0020     2.3170 ca         1 9M9      -0.127300
     10 C09         -2.0990     0.0010     1.1370 ca         1 9M9      -0.103300
     11 C10         -0.6940     0.0010     1.1440 ca         1 9M9       0.376600
     12 C11         -4.2880     0.0030     2.3020 c3         1 9M9       0.264700
     13 O12         -4.7630     1.3500     2.2960 os         1 9M9      -0.289900
     14 C21         -8.0110     2.9890     2.2650 ca         1 9M9      -0.171300
     15 C22         -8.8530     1.8920     2.2580 ca         1 9M9      -0.123000
     16 C23         -8.3260     0.6130     2.2640 ca         1 9M9      -0.029000
     17 C24         -6.9570     0.4290     2.2760 ca         1 9M9      -0.161000
     18 C25         -6.1100     1.5280     2.2830 ca         1 9M9       0.182100
     19 C26         -6.6410     2.8100     2.2780 ca         1 9M9      -0.123000
     20 N28         -8.7950     4.8380     3.6340 nz         1 9M9       0.073400
     21 HN02         2.2290    -0.8690    -1.6510 hn         1 9M9       0.282800
     22 HN0A         2.2310     0.8650    -1.6520 hn         1 9M9       0.282800
     23 H03          3.1340     0.0000     1.1680 ha         1 9M9       0.123000
     24 H04          1.9500     0.0010     3.3250 ha         1 9M9       0.115000
     25 H06         -0.2320     0.0030     4.5340 ha         1 9M9       0.112000
     26 H07         -2.6720     0.0050     4.4590 ha         1 9M9       0.103000
     27 H09         -2.6380    -0.0000     0.1980 ha         1 9M9       0.120000
     28 H11         -4.6400    -0.5090     1.4150 h1         1 9M9       0.009700
     29 H11A        -4.6570    -0.5070     3.1840 h1         1 9M9       0.009700
     30 H22         -9.9270     2.0350     2.2480 ha         1 9M9       0.110000
     31 H23         -8.9870    -0.2450     2.2580 ha         1 9M9       0.123000
     32 H24         -6.5450    -0.5730     2.2810 ha         1 9M9       0.141000
     33 H26         -5.9820     3.6700     2.2830 ha         1 9M9       0.122000
     34 H27         -7.9030     5.0520     1.7490 hx         1 9M9       0.082200
     35 H27A        -9.5370     4.3750     1.7300 hx         1 9M9       0.082200
     36 HN28        -9.5580     4.3360     4.0410 hn         1 9M9       0.223133
     37 HN2A        -8.9920     5.8190     3.6550 hn         1 9M9       0.223133
     38 H283        -7.9590     4.6550     4.1530 hn         1 9M9       0.223133
     39 C27         -8.5890     4.3810     2.2530 c3         1 9M9       0.037100
@<TRIPOS>BOND
     1     1     2 ar  
     2     1    11 ar  
     3     2     3 1   
     4     2     4 ar  
     5     3    21 1   
     6     3    22 1   
     7     4     5 ar  
     8     4    23 1   
     9     5     6 ar  
    10     5    24 1   
    11     6     7 ar  
    12     6    11 ar  
    13     7     8 ar  
    14     7    25 1   
    15     8     9 ar  
    16     8    26 1   
    17     9    10 ar  
    18     9    12 1   
    19    10    11 ar  
    20    10    27 1   
    21    12    13 1   
    22    12    28 1   
    23    12    29 1   
    24    13    18 1   
    25    14    15 ar  
    26    14    19 ar  
    27    14    39 1   
    28    15    16 ar  
    29    15    30 1   
    30    16    17 ar  
    31    16    31 1   
    32    17    18 ar  
    33    17    32 1   
    34    18    19 ar  
    35    19    33 1   
    36    20    36 1   
    37    20    37 1   
    38    20    38 1   
    39    20    39 1   
    40    34    39 1   
    41    35    39 1   
@<TRIPOS>SUBSTRUCTURE
     1 9M9         1 TEMP              0 ****  ****    0 ROOT
