@<TRIPOS>MOLECULE
molecule
   39    41     1     0     0
SMALL
bcc


@<TRIPOS>ATOM
      1 N01          0.0000     0.0000     0.0000 nb         1 9M9      -0.705000
      2 C02          1.3170     0.0000     0.0000 ca         1 9M9       0.701200
      3 N02          1.9940    -0.0010    -1.2100 nv         1 9M9      -1.085500
      4 C03          2.0510     0.0000     1.1960 ca         1 9M9      -0.242300
      5 C04          1.3990     0.0010     2.3920 ca         1 9M9      -0.081000
      6 C05         -0.0110     0.0010     2.3840 ca         1 9M9      -0.153300
      7 C06         -0.7450     0.0020     3.5800 ca         1 9M9      -0.098000
      8 C07         -2.1060     0.0030     3.5350 ca         1 9M9      -0.122000
      9 C08         -2.7800     0.0020     2.3170 ca         1 9M9      -0.104300
     10 C09         -2.0990     0.0010     1.1370 ca         1 9M9      -0.129300
     11 C10         -0.6940     0.0010     1.1440 ca         1 9M9       0.426600
     12 C11         -4.2880     0.0030     2.3020 c3         1 9M9       0.183700
     13 O12         -4.7630     1.3500     2.2960 os         1 9M9      -0.310900
     14 C21         -8.0110     2.9890     2.2650 ca         1 9M9      -0.160300
     15 C22         -8.8530     1.8920     2.2580 ca         1 9M9      -0.148000
     16 C23         -8.3260     0.6130     2.2640 ca         1 9M9      -0.070000
     17 C24         -6.9570     0.4290     2.2760 ca         1 9M9      -0.176000
     18 C25         -6.1100     1.5280     2.2830 ca         1 9M9       0.168100
     19 C26         -6.6410     2.8100     2.2780 ca         1 9M9      -0.144000
     20 N28         -8.7950     4.8380     3.6340 nz         1 9M9      -0.810600
     21 HN02         2.2290    -0.8690    -1.6510 hn         1 9M9       0.442800
     22 HN0A         2.2310     0.8650    -1.6520 hn         1 9M9       0.442800
     23 H03          3.1340     0.0000     1.1680 ha         1 9M9       0.152000
     24 H04          1.9500     0.0010     3.3250 ha         1 9M9       0.146000
     25 H06         -0.2320     0.0030     4.5340 ha         1 9M9       0.141000
     26 H07         -2.6720     0.0050     4.4590 ha         1 9M9       0.130000
     27 H09         -2.6380    -0.0000     0.1980 ha         1 9M9       0.152000
     28 H11         -4.6400    -0.5090     1.4150 h1         1 9M9       0.048700
     29 H11A        -4.6570    -0.5070     3.1840 h1         1 9M9       0.048700
     30 H22         -9.9270     2.0350     2.2480 ha         1 9M9       0.135000
     31 H23         -8.9870    -0.2450     2.2580 ha         1 9M9       0.159000
     32 H24         -6.5450    -0.5730     2.2810 ha         1 9M9       0.164000
     33 H26         -5.9820     3.6700     2.2830 ha         1 9M9       0.150000
     34 H27         -7.9030     5.0520     1.7490 hx         1 9M9       0.113200
     35 H27A        -9.5370     4.3750     1.7300 hx         1 9M9       0.113200
     36 HN28        -9.5580     4.3360     4.0410 hn         1 9M9       0.455133
     37 HN2A        -8.9920     5.8190     3.6550 hn         1 9M9       0.455133
     38 H283        -7.9590     4.6550     4.1530 hn         1 9M9       0.455133
     39 C27         -8.5890     4.3810     2.2530 c3         1 9M9       0.161100
@<TRIPOS>BOND
     1     1     2 ar
     2     1    11 ar
     3     2     3 1
     4     2     4 ar
     5     4     5 ar
     6     5     6 ar
     7     6     7 ar
     8     6    11 ar
     9     7     8 ar
    10     8     9 ar
    11     9    10 ar
    12     9    12 1
    13    10    11 ar
    14    12    13 1
    15    13    18 1
    16    14    15 ar
    17    14    19 ar
    18    14    39 1
    19    15    16 ar
    20    16    17 ar
    21    17    18 ar
    22    18    19 ar
    23    39    20 1
    24     3    21 1
    25     3    22 1
    26     4    23 1
    27     5    24 1
    28     7    25 1
    29     8    26 1
    30    10    27 1
    31    12    28 1
    32    12    29 1
    33    15    30 1
    34    16    31 1
    35    17    32 1
    36    19    33 1
    37    39    34 1
    38    39    35 1
    39    20    36 1
    40    20    37 1
    41    38    20 1
@<TRIPOS>SUBSTRUCTURE
     1 9M9         1 TEMP              0 ****  ****    0 ROOT
