@<TRIPOS>MOLECULE
molecule
   46    49     1     0     0
SMALL
bcc


@<TRIPOS>ATOM
      1 N3           0.0000     0.0000     0.0000 nu         1 9MA      -0.689400
      2 C4          -1.2630     2.0740    -4.1860 cc         1 9MA      -0.092000
      3 C5          -0.7920     2.0150    -2.8450 cd         1 9MA      -0.016300
      4 C7          -1.0870    -0.4510    -2.9130 cc         1 9MA      -0.012600
      5 C8          -1.5310    -0.3440    -4.1990 cd         1 9MA      -0.166000
      6 C13          2.4750     0.0000     0.0000 ca         1 9MA      -0.094800
      7 C15          3.6600    -0.0070     2.1180 ca         1 9MA      -0.139000
      8 C17          3.6630     0.0000     0.7310 ca         1 9MA      -0.119000
      9 C20          0.4570     3.0580     0.3350 ca         1 9MA      -0.076800
     10 C21         -0.3090     3.2450     1.4790 ca         1 9MA       0.179900
     11 C22          1.7500     3.5740     0.3930 ca         1 9MA       0.179900
     12 C26          2.2570     4.2350     1.4860 ca         1 9MA      -0.190000
     13 C14          1.2360    -0.0110     2.1450 ca         1 9MA      -0.094800
     14 C16          2.4620    -0.0110     2.8140 ca         1 9MA      -0.119000
     15 C18          2.5260     0.0040    -1.5170 c3         1 9MA      -0.042300
     16 C12          1.2550    -0.0050     0.7190 ca         1 9MA       0.155600
     17 C2          -0.2340     0.9760    -0.9390 cd         1 9MA       0.098900
     18 C1          -0.0510     2.3430    -0.8510 cc         1 9MA       0.088400
     19 N10         -0.3930     2.9790    -2.0190 nc         1 9MA      -0.254600
     20 C9          -1.6210     0.9240    -4.8410 cd         1 9MA      -0.125000
     21 N6          -0.7170     0.7440    -2.2420 na         1 9MA      -0.025300
     22 F24         -1.5710     2.7610     1.4800 f          1 9MA      -0.137400
     23 C27          0.1480     3.8990     2.6040 ca         1 9MA      -0.190000
     24 C25          1.4440     4.3970     2.5980 ca         1 9MA      -0.076000
     25 F23          2.5420     3.4160    -0.6930 f          1 9MA      -0.137400
     26 H1          -0.7420    -0.6090     0.2840 hn         1 9MA       0.448800
     27 H2          -1.3390     3.0290    -4.6900 ha         1 9MA       0.158000
     28 H3          -1.8200    -1.2370    -4.7390 ha         1 9MA       0.146000
     29 H4           4.5990    -0.0080     2.6590 ha         1 9MA       0.131000
     30 H5           4.6090     0.0030     0.2040 ha         1 9MA       0.130000
     31 H6           3.2690     4.6200     1.4800 ha         1 9MA       0.153000
     32 H7          -0.2900    -1.0280     3.2320 hc         1 9MA       0.046700
     33 H8           0.0590     0.6070     3.8110 hc         1 9MA       0.046700
     34 H9          -0.8540     0.3740     2.3130 hc         1 9MA       0.046700
     35 H10          2.4760    -0.0170     3.8980 ha         1 9MA       0.130000
     36 H11          3.5480    -0.1470    -1.8440 hc         1 9MA       0.046700
     37 H12          1.9030    -0.7940    -1.9020 hc         1 9MA       0.046700
     38 H13          2.1650     0.9560    -1.8880 hc         1 9MA       0.046700
     39 H14         -1.9770     0.9800    -5.8630 ha         1 9MA       0.141000
     40 H15         -1.3310    -2.5490    -2.8660 hc         1 9MA       0.057367
     41 H16         -1.5910    -1.7380    -1.3150 hc         1 9MA       0.057367
     42 H17          0.0500    -1.9430    -1.9420 hc         1 9MA       0.057367
     43 H18         -0.4900     4.0230     3.4710 ha         1 9MA       0.153000
     44 H19          1.8240     4.9150     3.4710 ha         1 9MA       0.138000
     45 C11         -0.9830    -1.7590    -2.2110 c3         1 9MA      -0.045800
     46 C19         -0.0530    -0.0150     2.9310 c3         1 9MA      -0.042300
@<TRIPOS>BOND
     1    24    23 ar
     2    24    12 ar
     3    14     7 ar
     4    14    13 ar
     5    23    10 ar
     6     7     8 ar
     7    46    13 1
     8    12    11 ar
     9    13    16 ar
    10    10    22 1
    11    10     9 ar
    12     8     6 ar
    13    11     9 ar
    14    11    25 1
    15    16     6 ar
    16    16     1 1
    17     9    18 1
    18     6    15 1
    19     1    17 1
    20    18    17 2
    21    18    19 1
    22    17    21 1
    23    19     3 2
    24    21     3 1
    25    21     4 1
    26    45     4 1
    27     3     2 1
    28     4     5 2
    29     2    20 2
    30     5    20 1
    31     1    26 1
    32     2    27 1
    33     5    28 1
    34     7    29 1
    35     8    30 1
    36    12    31 1
    37    46    32 1
    38    46    33 1
    39    46    34 1
    40    14    35 1
    41    15    36 1
    42    15    37 1
    43    15    38 1
    44    20    39 1
    45    45    40 1
    46    45    41 1
    47    45    42 1
    48    23    43 1
    49    24    44 1
@<TRIPOS>SUBSTRUCTURE
     1 9MA         1 TEMP              0 ****  ****    0 ROOT
