@<TRIPOS>MOLECULE
9MA
   46    49     1     0     0
SMALL
bcc


@<TRIPOS>ATOM
      1 N3           0.0000     0.0000     0.0000 nu         1 9MA      -0.245400
      2 C4          -1.2630     2.0740    -4.1860 cc         1 9MA      -0.041000
      3 C5          -0.7920     2.0150    -2.8450 cc         1 9MA      -0.207300
      4 C7          -1.0870    -0.4510    -2.9130 cc         1 9MA      -0.213600
      5 C8          -1.5310    -0.3440    -4.1990 cd         1 9MA      -0.103000
      6 C13          2.4750     0.0000     0.0000 ca         1 9MA      -0.095800
      7 C15          3.6600    -0.0070     2.1180 ca         1 9MA      -0.108000
      8 C17          3.6630     0.0000     0.7310 ca         1 9MA      -0.096000
      9 C20          0.4570     3.0580     0.3350 ca         1 9MA      -0.056800
     10 C21         -0.3090     3.2450     1.4790 ca         1 9MA       0.146400
     11 C22          1.7500     3.5740     0.3930 ca         1 9MA       0.146400
     12 C26          2.2570     4.2350     1.4860 ca         1 9MA      -0.150000
     13 C14          1.2360    -0.0110     2.1450 ca         1 9MA      -0.095800
     14 C16          2.4620    -0.0110     2.8140 ca         1 9MA      -0.096000
     15 C18          2.5260     0.0040    -1.5170 c3         1 9MA       0.057700
     16 C12          1.2550    -0.0050     0.7190 ca         1 9MA       0.010600
     17 C2          -0.2340     0.9760    -0.9390 cc         1 9MA      -0.228100
     18 C1          -0.0510     2.3430    -0.8510 cd         1 9MA       0.091400
     19 N10         -0.3930     2.9790    -2.0190 nd         1 9MA      -0.200600
     20 C9          -1.6210     0.9240    -4.8410 cd         1 9MA      -0.123000
     21 N6          -0.7170     0.7440    -2.2420 na         1 9MA       0.497700
     22 F24         -1.5710     2.7610     1.4800 f          1 9MA      -0.131900
     23 C27          0.1480     3.8990     2.6040 ca         1 9MA      -0.150000
     24 C25          1.4440     4.3970     2.5980 ca         1 9MA      -0.050000
     25 F23          2.5420     3.4160    -0.6930 f          1 9MA      -0.131900
     26 H1          -0.7420    -0.6090     0.2840 hn         1 9MA       0.289800
     27 H2          -1.3390     3.0290    -4.6900 ha         1 9MA       0.123000
     28 H3          -1.8200    -1.2370    -4.7390 ha         1 9MA       0.117000
     29 H4           4.5990    -0.0080     2.6590 ha         1 9MA       0.103000
     30 H5           4.6090     0.0030     0.2040 ha         1 9MA       0.104000
     31 H6           3.2690     4.6200     1.4800 ha         1 9MA       0.126500
     32 H7          -0.2900    -1.0280     3.2320 hc         1 9MA       0.012700
     33 H8           0.0590     0.6070     3.8110 hc         1 9MA       0.012700
     34 H9          -0.8540     0.3740     2.3130 hc         1 9MA       0.012700
     35 H10          2.4760    -0.0170     3.8980 ha         1 9MA       0.104000
     36 H11          3.5480    -0.1470    -1.8440 hc         1 9MA       0.012700
     37 H12          1.9030    -0.7940    -1.9020 hc         1 9MA       0.012700
     38 H13          2.1650     0.9560    -1.8880 hc         1 9MA       0.012700
     39 H14         -1.9770     0.9800    -5.8630 ha         1 9MA       0.113000
     40 H15         -1.3310    -2.5490    -2.8660 hc         1 9MA       0.020367
     41 H16         -1.5910    -1.7380    -1.3150 hc         1 9MA       0.020367
     42 H17          0.0500    -1.9430    -1.9420 hc         1 9MA       0.020367
     43 H18         -0.4900     4.0230     3.4710 ha         1 9MA       0.126500
     44 H19          1.8240     4.9150     3.4710 ha         1 9MA       0.106000
     45 C11         -0.9830    -1.7590    -2.2110 c3         1 9MA       0.065200
     46 C19         -0.0530    -0.0150     2.9310 c3         1 9MA       0.057700
@<TRIPOS>BOND
     1     1    16 1   
     2     1    17 1   
     3     1    26 1   
     4     2     3 1   
     5     2    20 2   
     6     2    27 1   
     7     3    19 2   
     8     3    21 1   
     9     4     5 2   
    10     4    21 1   
    11     4    45 1   
    12     5    20 1   
    13     5    28 1   
    14     6     8 ar  
    15     6    15 1   
    16     6    16 ar  
    17     7     8 ar  
    18     7    14 ar  
    19     7    29 1   
    20     8    30 1   
    21     9    10 ar  
    22     9    11 ar  
    23     9    18 1   
    24    10    22 1   
    25    10    23 ar  
    26    11    12 ar  
    27    11    25 1   
    28    12    24 ar  
    29    12    31 1   
    30    13    14 ar  
    31    13    16 ar  
    32    13    46 1   
    33    14    35 1   
    34    15    36 1   
    35    15    37 1   
    36    15    38 1   
    37    17    18 2   
    38    17    21 1   
    39    18    19 1   
    40    20    39 1   
    41    23    24 ar  
    42    23    43 1   
    43    24    44 1   
    44    32    46 1   
    45    33    46 1   
    46    34    46 1   
    47    40    45 1   
    48    41    45 1   
    49    42    45 1   
@<TRIPOS>SUBSTRUCTURE
     1 9MA         1 TEMP              0 ****  ****    0 ROOT
