@<TRIPOS>MOLECULE
molecule
   34    36     1     0     0
SMALL
bcc


@<TRIPOS>ATOM
      1 O05          0.0000     0.0000     0.0000 os         1 9MB      -0.348400
      2 C02          3.6420     0.0000     0.0000 ca         1 9MB       0.095100
      3 C20          1.5440    -0.0040     1.8110 ca         1 9MB      -0.158000
      4 C21          2.8470    -0.0030     2.2670 ca         1 9MB      -0.127000
      5 C22          3.8970     0.0000     1.3660 ca         1 9MB       0.088900
      6 F23          5.1710     0.0010     1.8140 f          1 9MB      -0.132900
      7 C04          1.2840     0.0020     0.4470 ca         1 9MB       0.133100
      8 C03          2.3340     0.0050    -0.4580 ca         1 9MB      -0.160000
      9 C06         -0.9940    -0.1340     0.9150 ca         1 9MB       0.645600
     10 C07         -2.0990     0.7050     0.8560 ca         1 9MB      -0.249300
     11 C08         -3.1100     0.5640     1.7930 ca         1 9MB      -0.072000
     12 C09         -2.9810    -0.4170     2.7630 ca         1 9MB      -0.258300
     13 C10         -1.8470    -1.2250     2.7650 cp         1 9MB       0.507800
     14 C11         -1.6980    -2.2790     3.7980 cp         1 9MB      -0.182500
     15 C12         -2.7380    -2.5360     4.6900 ca         1 9MB      -0.096000
     16 C13         -2.5970    -3.5170     5.6510 ca         1 9MB      -0.137000
     17 C14         -1.4260    -4.2470     5.7320 ca         1 9MB      -0.123000
     18 C15         -0.3840    -3.9990     4.8490 ca         1 9MB       0.060100
     19 O16          0.7650    -4.7200     4.9350 oh         1 9MB      -0.504100
     20 C17         -0.5180    -3.0200     3.8770 ca         1 9MB       0.157900
     21 F18          0.4940    -2.7760     3.0170 f          1 9MB      -0.099900
     22 N19         -0.9010    -1.0650     1.8480 nb         1 9MB      -0.721000
     23 H1           4.8060    -0.8700    -1.2170 ho         1 9MB       0.424000
     24 H2           0.7230    -0.0060     2.5180 ha         1 9MB       0.161000
     25 H3           3.0480    -0.0050     3.3310 ha         1 9MB       0.149000
     26 H4           2.1320     0.0520    -1.5210 ha         1 9MB       0.157000
     27 H5          -2.1700     1.4630     0.0850 ha         1 9MB       0.155000
     28 H6          -3.9820     1.2060     1.7670 ha         1 9MB       0.147000
     29 H7          -3.7530    -0.5540     3.5100 ha         1 9MB       0.145000
     30 H8          -3.6570    -1.9660     4.6290 ha         1 9MB       0.140000
     31 H9          -3.4060    -3.7150     6.3430 ha         1 9MB       0.141000
     32 H10         -1.3210    -5.0160     6.4880 ha         1 9MB       0.147000
     33 H11          1.3050    -4.3700     5.6240 ho         1 9MB       0.422000
     34 O01          4.6730     0.0030    -0.8860 oh         1 9MB      -0.506100
@<TRIPOS>BOND
     1    21    20 1
     2    19    18 1
     3    20    18 ar
     4    20    14 ar
     5    18    17 ar
     6     1     9 1
     7     1     7 1
     8    10     9 ar
     9    10    11 ar
    10     9    22 ar
    11    11    12 ar
    12    22    13 ar
    13    12    13 ar
    14    13    14 1
    15    14    15 ar
    16     8     7 ar
    17     8     2 ar
    18    17    16 ar
    19     7     3 ar
    20    34     2 1
    21     2     5 ar
    22    15    16 ar
    23     3     4 ar
    24     5     4 ar
    25     5     6 1
    26    34    23 1
    27     3    24 1
    28     4    25 1
    29     8    26 1
    30    10    27 1
    31    11    28 1
    32    12    29 1
    33    15    30 1
    34    16    31 1
    35    17    32 1
    36    19    33 1
@<TRIPOS>SUBSTRUCTURE
     1 9MB         1 TEMP              0 ****  ****    0 ROOT
