@<TRIPOS>MOLECULE
molecule
   62    66     1     0     0
SMALL
bcc


@<TRIPOS>ATOM
      1 C4           0.0000     0.0000     0.0000 ca         1 9MD      -0.106000
      2 C5           1.3990     0.0000     0.0000 ca         1 9MD       0.125400
      3 C6           2.0900     0.0000     1.2240 ca         1 9MD      -0.095200
      4 C8           3.5280    -0.0010    -0.4590 cc         1 9MD       0.515400
      5 C10          4.7940    -0.0010    -1.2260 ca         1 9MD      -0.095900
      6 C13          4.0150     0.1640     3.2760 c3         1 9MD       0.127100
      7 C20          2.9220     1.7390     4.8740 c3         1 9MD      -0.081400
      8 C21          3.4040     1.5590     3.4320 c3         1 9MD      -0.132400
      9 C22          8.0870    -2.9500     3.4930 c3         1 9MD      -0.093400
     10 C24          9.7940    -4.1130     2.0880 c3         1 9MD      -0.083400
     11 C26          8.1290    -2.5850     1.0220 c3         1 9MD      -0.093400
     12 C28          7.0880     0.6720    -1.4530 ca         1 9MD      -0.124000
     13 C19          4.1000     1.5110     5.8270 c3         1 9MD      -0.121400
     14 C18          4.6850     0.1180     5.5790 c3         1 9MD       0.143400
     15 O17          5.0850     0.0070     4.2120 os         1 9MD      -0.434600
     16 C11          4.5530    -0.0020     1.8540 c3         1 9MD      -0.013000
     17 C12          5.3010    -1.3060     1.7480 c          1 9MD       0.646100
     18 O14          4.8610    -2.2020     1.0590 o          1 9MD      -0.591100
     19 N15          6.4560    -1.4760     2.4200 ns         1 9MD      -0.563900
     20 C16          7.2270    -2.7120     2.2510 c3         1 9MD       0.116700
     21 C23          8.8910    -4.2390     3.3170 c3         1 9MD      -0.076900
     22 C25          8.9340    -3.8730     0.8450 c3         1 9MD      -0.076900
     23 N7           3.4360    -0.0010     0.9060 na         1 9MD      -0.127300
     24 C3           1.3850    -0.0000     2.4190 ca         1 9MD      -0.122000
     25 C2           0.0050    -0.0000     2.4030 ca         1 9MD      -0.003600
     26 C1          -0.6840    -0.0010     1.1960 ca         1 9MD       0.125900
     27 N9           2.3290    -0.0010    -0.9860 nd         1 9MD      -0.592100
     28 C27          5.9110     0.6760    -0.7330 ca         1 9MD      -0.090500
     29 C29          7.1620    -0.0000    -2.6600 ca         1 9MD       0.040400
     30 C31          6.0590    -0.6780    -3.1520 ca         1 9MD      -0.124000
     31 C30          4.8760    -0.6820    -2.4410 ca         1 9MD      -0.090500
     32 Cl34         8.6470    -0.0010    -3.5600 cl         1 9MD      -0.104400
     33 F32         -2.0350     0.0000     1.1950 f          1 9MD      -0.127900
     34 Cl33        -0.8750    -0.0010     3.8990 cl         1 9MD      -0.087400
     35 H1          -0.5430    -0.0000    -0.9370 ha         1 9MD       0.165000
     36 H2           3.2560    -0.5840     3.4700 h1         1 9MD       0.071700
     37 H3           2.5400     2.7440     5.0060 hc         1 9MD       0.052700
     38 H4           2.1410     1.0180     5.0870 hc         1 9MD       0.052700
     39 H6           4.1530     2.3090     3.2060 hc         1 9MD       0.067200
     40 H7           8.7670    -2.1170     3.6260 hc         1 9MD       0.047450
     41 H8           7.4460    -3.0420     4.3620 hc         1 9MD       0.047450
     42 H9          10.3610    -5.0270     1.9620 hc         1 9MD       0.042200
     43 H10         10.4710    -3.2780     2.2230 hc         1 9MD       0.042200
     44 H11          7.5180    -2.4180     0.1430 hc         1 9MD       0.047450
     45 H12          8.8090    -1.7520     1.1590 hc         1 9MD       0.047450
     46 H13          7.9550     1.1990    -1.0730 ha         1 9MD       0.149000
     47 H14          4.8620     2.2600     5.6450 hc         1 9MD       0.055200
     48 H15          3.7550     1.5810     6.8520 hc         1 9MD       0.055200
     49 H16          3.9330    -0.6320     5.7960 h1         1 9MD       0.053700
     50 H17          5.5460    -0.0310     6.2190 h1         1 9MD       0.053700
     51 H18          5.2220     0.8180     1.6240 h1         1 9MD       0.089700
     52 H19          6.8080    -0.7440     3.0050 hn         1 9MD       0.327500
     53 H20          6.5520    -3.5480     2.1150 h1         1 9MD       0.083700
     54 H21          9.5010    -4.4060     4.1960 hc         1 9MD       0.045950
     55 H22          8.2110    -5.0720     3.1800 hc         1 9MD       0.045950
     56 H23          8.2550    -4.7060     0.7120 hc         1 9MD       0.045950
     57 H24          9.5750    -3.7810    -0.0230 hc         1 9MD       0.045950
     58 H25          1.9170    -0.0000     3.3630 ha         1 9MD       0.162000
     59 H26          5.8530     1.2030     0.2120 ha         1 9MD       0.149000
     60 H27          6.1240    -1.2040    -4.0960 ha         1 9MD       0.149000
     61 H28          4.0130    -1.2120    -2.8260 ha         1 9MD       0.149000
     62 H5           2.5650     1.6630     2.7550 hc         1 9MD       0.067200
@<TRIPOS>BOND
     1    12    28 ar
     2    12    29 ar
     3     1     2 ar
     4     1    26 ar
     5    28     5 ar
     6    27     2 1
     7    27     4 2
     8    33    26 1
     9    32    29 1
    10    10    22 1
    11    10    21 1
    12    29    30 ar
    13     2     3 ar
    14    26    25 ar
    15     5     4 1
    16     5    31 ar
    17    22    11 1
    18     4    23 1
    19    21     9 1
    20    11    20 1
    21    30    31 ar
    22     9    20 1
    23     3    23 1
    24     3    24 ar
    25    25    24 ar
    26    25    34 1
    27    23    16 1
    28    20    19 1
    29    19    17 1
    30    16    17 1
    31    16     6 1
    32    17    18 2
    33    15     6 1
    34    15    14 1
    35     6     8 1
    36     8     7 1
    37    14    13 1
    38    13     7 1
    39     1    35 1
    40     6    36 1
    41     7    37 1
    42     7    38 1
    43     8    62 1
    44     8    39 1
    45     9    40 1
    46     9    41 1
    47    10    42 1
    48    10    43 1
    49    11    44 1
    50    11    45 1
    51    12    46 1
    52    13    47 1
    53    13    48 1
    54    14    49 1
    55    14    50 1
    56    16    51 1
    57    19    52 1
    58    20    53 1
    59    21    54 1
    60    21    55 1
    61    22    56 1
    62    22    57 1
    63    24    58 1
    64    28    59 1
    65    30    60 1
    66    31    61 1
@<TRIPOS>SUBSTRUCTURE
     1 9MD         1 TEMP              0 ****  ****    0 ROOT
