@<TRIPOS>MOLECULE
9MD
   62    66     1     0     0
SMALL
bcc


@<TRIPOS>ATOM
      1 C4           0.0000     0.0000     0.0000 ca         1 9MD      -0.061000
      2 C5           1.3990     0.0000     0.0000 ca         1 9MD       0.092400
      3 C6           2.0900     0.0000     1.2240 ca         1 9MD      -0.260200
      4 C8           3.5280    -0.0010    -0.4590 cc         1 9MD       0.314400
      5 C10          4.7940    -0.0010    -1.2260 ca         1 9MD      -0.088900
      6 C13          4.0150     0.1640     3.2760 c3         1 9MD       0.157100
      7 C20          2.9220     1.7390     4.8740 c3         1 9MD      -0.019400
      8 C21          3.4040     1.5590     3.4320 c3         1 9MD      -0.108400
      9 C22          8.0870    -2.9500     3.4930 c3         1 9MD      -0.040400
     10 C24          9.7940    -4.1130     2.0880 c3         1 9MD      -0.028400
     11 C26          8.1290    -2.5850     1.0220 c3         1 9MD      -0.040400
     12 C28          7.0880     0.6720    -1.4530 ca         1 9MD      -0.098000
     13 C19          4.1000     1.5110     5.8270 c3         1 9MD      -0.068400
     14 C18          4.6850     0.1180     5.5790 c3         1 9MD       0.222400
     15 O17          5.0850     0.0070     4.2120 os         1 9MD      -0.419600
     16 C11          4.5530    -0.0020     1.8540 c3         1 9MD      -0.150000
     17 C12          5.3010    -1.3060     1.7480 c          1 9MD       0.559100
     18 O14          4.8610    -2.2020     1.0590 o          1 9MD      -0.637100
     19 N15          6.4560    -1.4760     2.4200 ns         1 9MD      -0.164900
     20 C16          7.2270    -2.7120     2.2510 c3         1 9MD       0.012700
     21 C23          8.8910    -4.2390     3.3170 c3         1 9MD      -0.017400
     22 C25          8.9340    -3.8730     0.8450 c3         1 9MD      -0.017400
     23 N7           3.4360    -0.0010     0.9060 na         1 9MD       0.355700
     24 C3           1.3850    -0.0000     2.4190 ca         1 9MD      -0.119000
     25 C2           0.0050    -0.0000     2.4030 ca         1 9MD      -0.059600
     26 C1          -0.6840    -0.0010     1.1960 ca         1 9MD       0.091900
     27 N9           2.3290    -0.0010    -0.9860 nd         1 9MD      -0.511100
     28 C27          5.9110     0.6760    -0.7330 ca         1 9MD      -0.076000
     29 C29          7.1620    -0.0000    -2.6600 ca         1 9MD      -0.028600
     30 C31          6.0590    -0.6780    -3.1520 ca         1 9MD      -0.098000
     31 C30          4.8760    -0.6820    -2.4410 ca         1 9MD      -0.076000
     32 Cl34         8.6470    -0.0010    -3.5600 cl         1 9MD      -0.025400
     33 F32         -2.0350     0.0000     1.1950 f          1 9MD      -0.122900
     34 Cl33        -0.8750    -0.0010     3.8990 cl         1 9MD      -0.002400
     35 H1          -0.5430    -0.0000    -0.9370 ha         1 9MD       0.130000
     36 H2           3.2560    -0.5840     3.4700 h1         1 9MD       0.052700
     37 H3           2.5400     2.7440     5.0060 hc         1 9MD       0.023200
     38 H4           2.1410     1.0180     5.0870 hc         1 9MD       0.023200
     39 H6           4.1530     2.3090     3.2060 hc         1 9MD       0.047700
     40 H7           8.7670    -2.1170     3.6260 hc         1 9MD       0.020700
     41 H8           7.4460    -3.0420     4.3620 hc         1 9MD       0.020700
     42 H9          10.3610    -5.0270     1.9620 hc         1 9MD       0.014700
     43 H10         10.4710    -3.2780     2.2230 hc         1 9MD       0.014700
     44 H11          7.5180    -2.4180     0.1430 hc         1 9MD       0.020700
     45 H12          8.8090    -1.7520     1.1590 hc         1 9MD       0.020700
     46 H13          7.9550     1.1990    -1.0730 ha         1 9MD       0.116500
     47 H14          4.8620     2.2600     5.6450 hc         1 9MD       0.026700
     48 H15          3.7550     1.5810     6.8520 hc         1 9MD       0.026700
     49 H16          3.9330    -0.6320     5.7960 h1         1 9MD       0.012700
     50 H17          5.5460    -0.0310     6.2190 h1         1 9MD       0.012700
     51 H18          5.2220     0.8180     1.6240 h1         1 9MD       0.070700
     52 H19          6.8080    -0.7440     3.0050 hn         1 9MD       0.189500
     53 H20          6.5520    -3.5480     2.1150 h1         1 9MD       0.063700
     54 H21          9.5010    -4.4060     4.1960 hc         1 9MD       0.017450
     55 H22          8.2110    -5.0720     3.1800 hc         1 9MD       0.017450
     56 H23          8.2550    -4.7060     0.7120 hc         1 9MD       0.017450
     57 H24          9.5750    -3.7810    -0.0230 hc         1 9MD       0.017450
     58 H25          1.9170    -0.0000     3.3630 ha         1 9MD       0.153000
     59 H26          5.8530     1.2030     0.2120 ha         1 9MD       0.118000
     60 H27          6.1240    -1.2040    -4.0960 ha         1 9MD       0.116500
     61 H28          4.0130    -1.2120    -2.8260 ha         1 9MD       0.118000
     62 H5           2.5650     1.6630     2.7550 hc         1 9MD       0.047700
@<TRIPOS>BOND
     1     1     2 ar  
     2     1    26 ar  
     3     1    35 1   
     4     2     3 ar  
     5     2    27 1   
     6     3    23 1   
     7     3    24 ar  
     8     4     5 1   
     9     4    23 1   
    10     4    27 2   
    11     5    28 ar  
    12     5    31 ar  
    13     6     8 1   
    14     6    15 1   
    15     6    16 1   
    16     6    36 1   
    17     7     8 1   
    18     7    13 1   
    19     7    37 1   
    20     7    38 1   
    21     8    39 1   
    22     8    62 1   
    23     9    20 1   
    24     9    21 1   
    25     9    40 1   
    26     9    41 1   
    27    10    21 1   
    28    10    22 1   
    29    10    42 1   
    30    10    43 1   
    31    11    20 1   
    32    11    22 1   
    33    11    44 1   
    34    11    45 1   
    35    12    28 ar  
    36    12    29 ar  
    37    12    46 1   
    38    13    14 1   
    39    13    47 1   
    40    13    48 1   
    41    14    15 1   
    42    14    49 1   
    43    14    50 1   
    44    16    17 1   
    45    16    23 1   
    46    16    51 1   
    47    17    18 2   
    48    17    19 1   
    49    19    20 1   
    50    19    52 1   
    51    20    53 1   
    52    21    54 1   
    53    21    55 1   
    54    22    56 1   
    55    22    57 1   
    56    24    25 ar  
    57    24    58 1   
    58    25    26 ar  
    59    25    34 1   
    60    26    33 1   
    61    28    59 1   
    62    29    30 ar  
    63    29    32 1   
    64    30    31 ar  
    65    30    60 1   
    66    31    61 1   
@<TRIPOS>SUBSTRUCTURE
     1 9MD         1 TEMP              0 ****  ****    0 ROOT
