@<TRIPOS>MOLECULE
molecule
   30    32     1     0     0
SMALL
bcc


@<TRIPOS>ATOM
      1 C10          0.0000     0.0000     0.0000 ca         1 9ME       0.371800
      2 C11          1.4040     0.0000     0.0000 ca         1 9ME      -0.209300
      3 C01         -2.1970    -0.0670    -1.3130 ca         1 9ME      -0.182600
      4 C02         -0.7240    -0.0000    -1.2930 c          1 9ME       0.497200
      5 O01         -0.1040     0.0540    -2.3360 o          1 9ME      -0.520100
      6 C03         -2.8910     0.0910    -2.5170 ca         1 9ME      -0.052000
      7 C04         -4.2670     0.0270    -2.5320 ca         1 9ME      -0.183000
      8 C05         -4.9680    -0.1920    -1.3560 ca         1 9ME       0.138900
      9 F01         -6.3170    -0.2520    -1.3790 f          1 9ME      -0.130900
     10 C06         -4.2860    -0.3490    -0.1540 ca         1 9ME       0.041100
     11 O02         -4.9780    -0.5650     0.9960 oh         1 9ME      -0.508100
     12 C07         -2.9050    -0.2940    -0.1290 ca         1 9ME      -0.085000
     13 C08          1.3380     0.0000     2.3780 ca         1 9ME      -0.136300
     14 C09         -0.0800    -0.0040     2.3100 ca         1 9ME       0.407600
     15 N01         -0.6890    -0.0040     1.1250 nb         1 9ME      -0.663000
     16 C12          2.0830     0.0000     1.1840 ca         1 9ME      -0.083000
     17 C13         -0.8220    -0.0040     3.5070 ca         1 9ME      -0.161300
     18 C14         -0.1740     0.0010     4.7020 ca         1 9ME      -0.118000
     19 C15          1.2190     0.0060     4.7660 ca         1 9ME      -0.115000
     20 C16          1.9720    -0.0010     3.6320 ca         1 9ME      -0.115000
     21 H1           1.9450     0.0750    -0.9350 ha         1 9ME       0.162000
     22 H2          -2.3460     0.2620    -3.4370 ha         1 9ME       0.156000
     23 H3          -4.8040     0.1500    -3.4650 ha         1 9ME       0.151000
     24 H4          -5.1390    -1.4880     1.0980 ho         1 9ME       0.418000
     25 H5          -2.3740    -0.4160     0.8070 ha         1 9ME       0.209000
     26 H6           3.1660     0.0000     1.2040 ha         1 9ME       0.147000
     27 H7          -1.9050    -0.0080     3.4760 ha         1 9ME       0.153000
     28 H8          -0.7490     0.0070     5.6200 ha         1 9ME       0.138000
     29 H9           1.7090     0.0100     5.7330 ha         1 9ME       0.135000
     30 H10          3.0530     0.0040     3.6960 ha         1 9ME       0.138000
@<TRIPOS>BOND
     1     5     4 2
     2    20    19 ar
     3    20    13 ar
     4    19    18 ar
     5    16    13 ar
     6    16     2 ar
     7    13    14 ar
     8     2     1 ar
     9    18    17 ar
    10    14    17 ar
    11    14    15 ar
    12     1     4 1
    13     1    15 ar
    14     4     3 1
    15    12     3 ar
    16    12    10 ar
    17     3     6 ar
    18    11    10 1
    19    10     8 ar
    20     6     7 ar
    21     8     7 ar
    22     8     9 1
    23     2    21 1
    24     6    22 1
    25     7    23 1
    26    11    24 1
    27    12    25 1
    28    16    26 1
    29    17    27 1
    30    18    28 1
    31    19    29 1
    32    20    30 1
@<TRIPOS>SUBSTRUCTURE
     1 9ME         1 TEMP              0 ****  ****    0 ROOT
