@<TRIPOS>MOLECULE
9MG
   19    20     1     0     0
SMALL
bcc


@<TRIPOS>ATOM
      1 C1           0.0000     0.0000     0.0000 c3         1 9MG       0.003600
      2 N2           1.4640     0.0000     0.0000 na         1 9MG       0.204000
      3 C3           2.2710     0.0000     1.0990 cc         1 9MG       0.245700
      4 N4           3.5190    -0.0000     0.7350 nd         1 9MG      -0.470100
      5 C5           3.5940    -0.0010    -0.6200 ca         1 9MG      -0.200200
      6 C6           4.6460    -0.0030    -1.5480 ca         1 9MG       0.715600
      7 O7           5.9340    -0.0030    -1.1310 oh         1 9MG      -0.589300
      8 N8           4.3520    -0.0040    -2.8400 nb         1 9MG      -0.709000
      9 C9           3.0930    -0.0050    -3.2590 ca         1 9MG       0.743900
     10 N10          2.8400    -0.0060    -4.6200 nv         1 9MG      -0.634500
     11 N11          2.0710    -0.0040    -2.4180 nb         1 9MG      -0.637000
     12 C12          2.2760    -0.0070    -1.1060 ca         1 9MG       0.246800
     13 H11         -0.3610     0.8690    -0.5360 h1         1 9MG       0.024700
     14 H12         -0.3610    -0.8990    -0.4850 h1         1 9MG       0.024700
     15 H13         -0.3610     0.0290     1.0210 h1         1 9MG       0.024700
     16 H3           1.9230     0.0000     2.1250 h5         1 9MG       0.032800
     17 HO7          6.3910     0.7240    -1.5210 ho         1 9MG       0.416000
     18 H101         2.7030    -0.8720    -5.1030 hn         1 9MG       0.278800
     19 H102         2.7920     0.8590    -5.1210 hn         1 9MG       0.278800
@<TRIPOS>BOND
     1     1     2 1   
     2     1    13 1   
     3     1    14 1   
     4     1    15 1   
     5     2     3 1   
     6     2    12 1   
     7     3     4 2   
     8     3    16 1   
     9     4     5 1   
    10     5     6 ar  
    11     5    12 ar  
    12     6     7 1   
    13     6     8 ar  
    14     7    17 1   
    15     8     9 ar  
    16     9    10 1   
    17     9    11 ar  
    18    10    18 1   
    19    10    19 1   
    20    11    12 ar  
@<TRIPOS>SUBSTRUCTURE
     1 9MG         1 TEMP              0 ****  ****    0 ROOT
