@<TRIPOS>MOLECULE
molecule
   40    42     1     0     0
SMALL
bcc


@<TRIPOS>ATOM
      1 C13          0.0000     0.0000     0.0000 ca         1 9MH       0.145900
      2 C12          1.3860     0.0000     0.0000 ca         1 9MH      -0.173000
      3 C10          1.3830    -0.0000     2.4030 ca         1 9MH      -0.176600
      4 C7           2.1360     0.3580     6.1440 ca         1 9MH      -0.194300
      5 C4          -0.4270     1.8010     8.3490 ca         1 9MH      -0.077000
      6 C3          -1.6750     2.3290     8.2350 ca         1 9MH      -0.141000
      7 C2          -2.2960     2.4420     6.9840 ca         1 9MH       0.012600
      8 C1          -3.9150     3.7550     5.8400 c          1 9MH       0.632100
      9 F           -0.6740    -0.0010    -1.1720 f          1 9MH      -0.124900
     10 C11          2.0790     0.0000     1.1900 ca         1 9MH      -0.046000
     11 C14         -0.7010    -0.0050     1.2020 ca         1 9MH       0.039100
     12 O2          -2.0600    -0.0050     1.1960 oh         1 9MH      -0.517100
     13 C15         -0.0140    -0.0110     2.4020 ca         1 9MH      -0.073000
     14 C9           2.1220    -0.0000     3.6810 c          1 9MH       0.491200
     15 O1           3.2720    -0.3910     3.7170 o          1 9MH      -0.498100
     16 C8           1.4620     0.4750     4.9190 ca         1 9MH       0.386800
     17 C6           1.5360     0.7880     7.2920 ca         1 9MH      -0.079000
     18 N2           0.2530     0.9980     4.8440 nb         1 9MH      -0.658000
     19 C16         -0.3800     1.4390     5.9330 ca         1 9MH       0.417600
     20 C5           0.2450     1.3410     7.2050 ca         1 9MH      -0.142300
     21 C17         -1.6680     1.9950     5.8430 ca         1 9MH      -0.144300
     22 O           -3.1390     3.8890     4.9180 o          1 9MH      -0.577100
     23 C           -5.2550     4.4420     5.8040 c3         1 9MH       0.012800
     24 N           -5.3770     5.2100     4.5560 nz         1 9MH      -0.794600
     25 H1           1.9260     0.0000    -0.9390 ha         1 9MH       0.160000
     26 H2           3.0970    -0.1390     6.1890 ha         1 9MH       0.174000
     27 H3           0.0410     1.7200     9.3230 ha         1 9MH       0.154000
     28 H4          -2.1870     2.6870     9.1200 ha         1 9MH       0.138000
     29 H5           3.1620     0.0040     1.1870 ha         1 9MH       0.161000
     30 H6          -2.3750    -0.8940     1.1960 ho         1 9MH       0.422000
     31 H7          -0.5580    -0.0130     3.3390 ha         1 9MH       0.174000
     32 H8           2.0410     0.7060     8.2470 ha         1 9MH       0.156000
     33 H9          -2.1570     2.0860     4.8810 ha         1 9MH       0.173000
     34 H10         -4.2580     2.7870     7.6040 hn         1 9MH       0.338500
     35 H11         -6.0430     3.7010     5.8510 hx         1 9MH       0.126700
     36 H12         -5.3390     5.1130     6.6510 hx         1 9MH       0.126700
     37 H13         -4.6180     5.8570     4.4870 hn         1 9MH       0.468800
     38 H14         -6.2440     5.7110     4.5560 hn         1 9MH       0.468800
     39 HN3         -5.3540     4.5830     3.7760 hn         1 9MH       0.468800
     40 N1          -3.5790     2.9890     6.8980 ns         1 9MH      -0.430100
@<TRIPOS>BOND
     1    15    14 2
     2    17     4 ar
     3    17    20 ar
     4     4    16 ar
     5    14    16 1
     6    14     3 1
     7     5    20 ar
     8     5     6 ar
     9    20    19 ar
    10    16    18 ar
    11    24    23 1
    12     6     7 ar
    13    19    18 ar
    14    19    21 ar
    15     7    21 ar
    16     7    40 1
    17    13     3 ar
    18    13    11 ar
    19    40     8 1
    20    22     8 2
    21     8    23 1
    22     3    10 ar
    23    12    11 1
    24    11     1 ar
    25    10     2 ar
    26     1     2 ar
    27     1     9 1
    28     2    25 1
    29     4    26 1
    30     5    27 1
    31     6    28 1
    32    10    29 1
    33    12    30 1
    34    13    31 1
    35    17    32 1
    36    21    33 1
    37    40    34 1
    38    23    35 1
    39    23    36 1
    40    24    37 1
    41    24    38 1
    42    39    24 1
@<TRIPOS>SUBSTRUCTURE
     1 9MH         1 TEMP              0 ****  ****    0 ROOT
