@<TRIPOS>MOLECULE
9MH
   40    42     1     0     0
SMALL
bcc


@<TRIPOS>ATOM
      1 C13          0.0000     0.0000     0.0000 ca         1 9MH       0.105900
      2 C12          1.3860     0.0000     0.0000 ca         1 9MH      -0.132000
      3 C10          1.3830    -0.0000     2.4030 ca         1 9MH      -0.174600
      4 C7           2.1360     0.3580     6.1440 ca         1 9MH      -0.151300
      5 C4          -0.4270     1.8010     8.3490 ca         1 9MH      -0.043000
      6 C3          -1.6750     2.3290     8.2350 ca         1 9MH      -0.108000
      7 C2          -2.2960     2.4420     6.9840 ca         1 9MH      -0.159400
      8 C1          -3.9150     3.7550     5.8400 c          1 9MH       0.522100
      9 F           -0.6740    -0.0010    -1.1720 f          1 9MH      -0.117900
     10 C11          2.0790     0.0000     1.1900 ca         1 9MH      -0.022000
     11 C14         -0.7010    -0.0050     1.2020 ca         1 9MH       0.071100
     12 O2          -2.0600    -0.0050     1.1960 oh         1 9MH      -0.496100
     13 C15         -0.0140    -0.0110     2.4020 ca         1 9MH      -0.081000
     14 C9           2.1220    -0.0000     3.6810 c          1 9MH       0.535200
     15 O1           3.2720    -0.3910     3.7170 o          1 9MH      -0.533100
     16 C8           1.4620     0.4750     4.9190 ca         1 9MH       0.325800
     17 C6           1.5360     0.7880     7.2920 ca         1 9MH      -0.058000
     18 N2           0.2530     0.9980     4.8440 nb         1 9MH      -0.528000
     19 C16         -0.3800     1.4390     5.9330 ca         1 9MH       0.363600
     20 C5           0.2450     1.3410     7.2050 ca         1 9MH      -0.128300
     21 C17         -1.6680     1.9950     5.8430 ca         1 9MH      -0.107300
     22 O           -3.1390     3.8890     4.9180 o          1 9MH      -0.632100
     23 C           -5.2550     4.4420     5.8040 c3         1 9MH      -0.132200
     24 N           -5.3770     5.2100     4.5560 nz         1 9MH       0.114400
     25 H1           1.9260     0.0000    -0.9390 ha         1 9MH       0.129000
     26 H2           3.0970    -0.1390     6.1890 ha         1 9MH       0.143000
     27 H3           0.0410     1.7200     9.3230 ha         1 9MH       0.122000
     28 H4          -2.1870     2.6870     9.1200 ha         1 9MH       0.110000
     29 H5           3.1620     0.0040     1.1870 ha         1 9MH       0.127000
     30 H6          -2.3750    -0.8940     1.1960 ho         1 9MH       0.406000
     31 H7          -0.5580    -0.0130     3.3390 ha         1 9MH       0.146000
     32 H8           2.0410     0.7060     8.2470 ha         1 9MH       0.124000
     33 H9          -2.1570     2.0860     4.8810 ha         1 9MH       0.148000
     34 H10         -4.2580     2.7870     7.6040 hn         1 9MH       0.170500
     35 H11         -6.0430     3.7010     5.8510 hx         1 9MH       0.091700
     36 H12         -5.3390     5.1130     6.6510 hx         1 9MH       0.091700
     37 H13         -4.6180     5.8570     4.4870 hn         1 9MH       0.229133
     38 H14         -6.2440     5.7110     4.5560 hn         1 9MH       0.229133
     39 HN3         -5.3540     4.5830     3.7760 hn         1 9MH       0.229133
     40 N1          -3.5790     2.9890     6.8980 ns         1 9MH       0.068900
@<TRIPOS>BOND
     1     1     2 ar  
     2     1     9 1   
     3     1    11 ar  
     4     2    10 ar  
     5     2    25 1   
     6     3    10 ar  
     7     3    13 ar  
     8     3    14 1   
     9     4    16 ar  
    10     4    17 ar  
    11     4    26 1   
    12     5     6 ar  
    13     5    20 ar  
    14     5    27 1   
    15     6     7 ar  
    16     6    28 1   
    17     7    21 ar  
    18     7    40 1   
    19     8    22 2   
    20     8    23 1   
    21     8    40 1   
    22    10    29 1   
    23    11    12 1   
    24    11    13 ar  
    25    12    30 1   
    26    13    31 1   
    27    14    15 2   
    28    14    16 1   
    29    16    18 ar  
    30    17    20 ar  
    31    17    32 1   
    32    18    19 ar  
    33    19    20 ar  
    34    19    21 ar  
    35    21    33 1   
    36    23    24 1   
    37    23    35 1   
    38    23    36 1   
    39    24    37 1   
    40    24    38 1   
    41    24    39 1   
    42    34    40 1   
@<TRIPOS>SUBSTRUCTURE
     1 9MH         1 TEMP              0 ****  ****    0 ROOT
