@<TRIPOS>MOLECULE
9MJ
   22    23     1     0     0
SMALL
bcc


@<TRIPOS>ATOM
      1 C          -0.0370    0.0480   -0.0120 c         1 9MJ      0.565900
      2 N           1.4810    0.0960   -0.1180 n4        1 9MJ     -0.722400
      3 O          -0.4840    0.0400    1.1400 o         1 9MJ     -0.497100
      4 C1         -1.2270   -0.0120   -3.3020 cc        1 9MJ      0.677000
      5 N1         -0.7480    0.0180   -1.1850 n         1 9MJ     -0.110500
      6 O1          0.1440    0.0200   -5.3140 os        1 9MJ     -0.342800
      7 C2         -2.2290   -0.0320   -1.3260 cd        1 9MJ      0.793400
      8 N2         -0.1730    0.0280   -2.4380 nd        1 9MJ     -0.608800
      9 C3         -1.1390   -0.0190   -4.7330 cc        1 9MJ      0.115700
     10 N3         -2.5050   -0.0500   -2.6580 nc        1 9MJ     -0.716000
     11 C4         -0.0580    0.0040   -6.6870 cc        1 9MJ      0.309600
     12 N4         -3.0730   -0.0530   -0.2660 nh        1 9MJ     -0.937500
     13 C5         -1.4110   -0.0420   -6.9840 cd        1 9MJ     -0.278300
     14 C6         -2.1110   -0.0570   -5.7270 cd        1 9MJ     -0.118300
     15 HN          1.8280   -0.7300   -0.6210 hn        1 9MJ      0.482133
     16 HNA         1.7740    0.9370   -0.6310 hn        1 9MJ      0.482133
     17 H4          0.8580    0.0310   -7.2760 h4        1 9MJ      0.074100
     18 HN4        -4.0550   -0.0860   -0.4350 hn        1 9MJ      0.487300
     19 HN4A       -2.7300   -0.0350    0.6670 hn        1 9MJ      0.487300
     20 H5         -1.8710   -0.0640   -7.9700 ha        1 9MJ      0.188000
     21 H6         -3.1920   -0.0920   -5.5870 ha        1 9MJ      0.189000
     22 HN3         1.8670    0.1140    0.8340 hn        1 9MJ      0.482133
@<TRIPOS>BOND
     1    1    2 1
     2    1    3 2
     3    1    5 1
     4    2   15 1
     5    2   16 1
     6    2   22 1
     7    4    8 2
     8    4    9 1
     9    4   10 1
    10    5    7 1
    11    5    8 1
    12    6    9 1
    13    6   11 1
    14    7   10 2
    15    7   12 1
    16    9   14 2
    17   11   13 2
    18   11   17 1
    19   12   18 1
    20   12   19 1
    21   13   14 1
    22   13   20 1
    23   14   21 1
@<TRIPOS>SUBSTRUCTURE
     1 9MJ         1 TEMP              0 ****  ****    0 ROOT
