@<TRIPOS>MOLECULE
molecule
   33    35     1     0     0
SMALL
bcc


@<TRIPOS>ATOM
      1 C1           0.0000     0.0000     0.0000 ca         1 9MK      -0.067300
      2 C2           1.3940     0.0000     0.0000 ca         1 9MK      -0.116000
      3 C9           5.8080    -0.1900     7.0470 ca         1 9MK      -0.184000
      4 C8           4.4380    -0.0400     7.0920 ca         1 9MK      -0.052000
      5 C7           3.6850    -0.1570     5.9190 ca         1 9MK      -0.181600
      6 C4           1.4100     0.0010     2.3940 ca         1 9MK       0.401600
      7 C3           2.0970     0.0000     1.1640 ca         1 9MK      -0.158300
      8 C16         -0.6990     0.0020     1.1690 ca         1 9MK      -0.121000
      9 C5           1.4370     0.0040     4.7050 ca         1 9MK       0.368800
     10 C10          6.4410    -0.4560     5.8450 ca         1 9MK       0.139900
     11 C15         -0.0100     0.0020     2.3900 ca         1 9MK      -0.130300
     12 C14         -0.6980     0.0040     3.6180 ca         1 9MK      -0.086000
     13 C13          0.0340     0.0040     4.7700 ca         1 9MK      -0.207300
     14 C12          4.3250    -0.4240     4.7060 ca         1 9MK      -0.084000
     15 O            1.6540     0.1370     7.0310 o          1 9MK      -0.521100
     16 C11          5.6990    -0.5780     4.6750 ca         1 9MK       0.040100
     17 F            7.7850    -0.5960     5.8080 f          1 9MK      -0.130900
     18 O1           6.3260    -0.8400     3.4960 oh         1 9MK      -0.508100
     19 N            2.0730     0.0020     3.5500 nb         1 9MK      -0.661000
     20 C           -0.7430     0.0060    -1.3110 c3         1 9MK      -0.052800
     21 H1           1.9270    -0.0020    -0.9430 ha         1 9MK       0.138000
     22 H3           3.9460     0.1680     8.0340 ha         1 9MK       0.157000
     23 H4           3.1800     0.0000     1.1450 ha         1 9MK       0.153000
     24 H5          -1.7830     0.0020     1.1550 ha         1 9MK       0.138000
     25 H6          -1.7810     0.0040     3.6480 ha         1 9MK       0.146000
     26 H7          -0.4640    -0.0820     5.7290 ha         1 9MK       0.161000
     27 H8           3.7470    -0.5170     3.7950 ha         1 9MK       0.207000
     28 H9           6.4100    -1.7720     3.3850 ho         1 9MK       0.418000
     29 H10         -1.4890     0.7920    -1.3000 hc         1 9MK       0.047700
     30 H11         -1.2290    -0.9510    -1.4560 hc         1 9MK       0.047700
     31 H12         -0.0450     0.1830    -2.1210 hc         1 9MK       0.047700
     32 C6           2.2190     0.0040     5.9630 c          1 9MK       0.497200
     33 H2           6.3900    -0.0980     7.9560 ha         1 9MK       0.151000
@<TRIPOS>BOND
     1    20     1 1
     2     1     8 ar
     3     1     2 ar
     4     8    11 ar
     5     2     7 ar
     6    11    12 ar
     7    11     6 ar
     8    12    13 ar
     9     7     6 ar
    10    15    32 2
    11     6    19 ar
    12    13     9 ar
    13    19     9 ar
    14     9    32 1
    15    32     5 1
    16     5    14 ar
    17     5     4 ar
    18    14    16 ar
    19     4     3 ar
    20    16    18 1
    21    16    10 ar
    22     3    10 ar
    23    10    17 1
    24     2    21 1
    25     3    33 1
    26     4    22 1
    27     7    23 1
    28     8    24 1
    29    12    25 1
    30    13    26 1
    31    14    27 1
    32    18    28 1
    33    20    29 1
    34    20    30 1
    35    20    31 1
@<TRIPOS>SUBSTRUCTURE
     1 9MK         1 TEMP              0 ****  ****    0 ROOT
