@<TRIPOS>MOLECULE
molecule
   60    64     1     0     0
SMALL
bcc


@<TRIPOS>ATOM
      1 N1           0.0000     0.0000     0.0000 na         1 9MM      -0.133300
      2 N3           0.6410     0.0010     2.0960 nc         1 9MM      -0.596100
      3 C4           1.3820     0.0000     0.0000 ca         1 9MM      -0.077200
      4 C5           1.7730     0.0000     1.3500 ca         1 9MM       0.096400
      5 C6           2.3430     0.0000    -1.0010 ca         1 9MM      -0.158000
      6 C7          -0.8690    -0.0000    -1.1800 c3         1 9MM       0.049000
      7 C8           3.1340     0.0060     1.6730 ca         1 9MM      -0.097000
      8 C13          0.7540    -1.8010    -7.0880 ca         1 9MM      -0.103600
      9 C15         -1.1910    -1.2010    -5.8100 ca         1 9MM       0.076900
     10 C17         -0.3870    -1.0030    -4.6900 ca         1 9MM       0.054100
     11 C20          1.5570    -1.5950    -5.9620 ca         1 9MM      -0.071000
     12 C21          0.9860    -1.1990    -4.7740 ca         1 9MM      -0.224000
     13 C22         -1.4260     1.4070    -1.4040 c3         1 9MM      -0.080700
     14 C24         -2.1800     0.7000     2.9070 ca         1 9MM      -0.092500
     15 C14         -0.0640    -0.4320    -2.4070 c3         1 9MM       0.122400
     16 O18         -0.9460    -0.6170    -3.5150 os         1 9MM      -0.330900
     17 C16         -0.6270    -1.5980    -7.0030 ca         1 9MM      -0.111000
     18 O19          2.6930    -2.4200    -8.4410 o          1 9MM      -0.829300
     19 O28          0.6640    -2.3990    -9.3410 o          1 9MM      -0.829300
     20 C33         -0.2800     2.3580    -1.7540 c3         1 9MM      -0.082400
     21 C35         -0.8360     3.7670    -1.9780 c3         1 9MM      -0.075900
     22 C37         -1.8450     3.7390    -3.1280 c3         1 9MM      -0.081400
     23 C36         -2.9910     2.7880    -2.7770 c3         1 9MM      -0.075900
     24 C34         -2.4350     1.3790    -2.5530 c3         1 9MM      -0.082400
     25 C9           3.6820    -0.0000    -0.6670 ca         1 9MM       0.116900
     26 C12          4.0770     0.0040     0.6680 ca         1 9MM       0.080900
     27 C2          -0.4060    -0.0070     1.3080 cd         1 9MM       0.482400
     28 C11         -1.8130    -0.0080     1.7620 ca         1 9MM      -0.098900
     29 C23         -2.7790    -0.7170     1.0460 ca         1 9MM      -0.092500
     30 C31         -4.0900    -0.7150     1.4760 ca         1 9MM      -0.126000
     31 C29         -4.4480    -0.0110     2.6130 ca         1 9MM       0.038400
     32 C30         -3.4930     0.6900     3.3300 ca         1 9MM      -0.126000
     33 Cl32        -6.1000    -0.0130     3.1470 cl         1 9MM      -0.111400
     34 F26          5.3900     0.0100     0.9800 f          1 9MM      -0.131900
     35 F25          4.6170    -0.0000    -1.6430 f          1 9MM      -0.120900
     36 H1           2.0430    -0.0030    -2.0420 ha         1 9MM       0.169000
     37 H2          -1.6890    -0.6910    -1.0250 h1         1 9MM       0.085700
     38 H3           3.4460     0.0090     2.7110 ha         1 9MM       0.159000
     39 H4           2.6280    -1.7470    -6.0250 ha         1 9MM       0.165000
     40 H5           1.6090    -1.0420    -3.9010 ha         1 9MM       0.114000
     41 H6          -1.9170     1.7540    -0.5030 hc         1 9MM       0.055700
     42 H7          -1.4330     1.2480     3.4690 ha         1 9MM       0.155500
     43 H8           0.6640     0.3330    -2.6480 h1         1 9MM       0.052700
     44 H9           0.4470    -1.3630    -2.1930 h1         1 9MM       0.052700
     45 H10         -1.2520    -1.7520    -7.8750 ha         1 9MM       0.169000
     46 H12          0.2080     2.0160    -2.6580 hc         1 9MM       0.057950
     47 H13          0.4330     2.3790    -0.9380 hc         1 9MM       0.057950
     48 H14         -1.3290     4.1070    -1.0750 hc         1 9MM       0.038200
     49 H15         -0.0240     4.4390    -2.2280 hc         1 9MM       0.038200
     50 H16         -2.2400     4.7350    -3.2850 hc         1 9MM       0.043700
     51 H17         -1.3540     3.3930    -4.0290 hc         1 9MM       0.043700
     52 H18         -3.4790     3.1300    -1.8720 hc         1 9MM       0.038200
     53 H19         -3.7040     2.7670    -3.5920 hc         1 9MM       0.038200
     54 H20         -1.9430     1.0390    -3.4560 hc         1 9MM       0.057950
     55 H21         -3.2470     0.7070    -2.3030 hc         1 9MM       0.057950
     56 H22         -2.5000    -1.2690     0.1560 ha         1 9MM       0.155500
     57 H23         -4.8410    -1.2630     0.9210 ha         1 9MM       0.148000
     58 H24         -3.7790     1.2390     4.2190 ha         1 9MM       0.148000
     59 C10          1.3620    -2.2260    -8.3620 c          1 9MM       0.882200
     60 F27         -2.5250    -1.0090    -5.7240 f          1 9MM      -0.158900
@<TRIPOS>BOND
     1    19    59 1
     2    18    59 1
     3    59     8 1
     4     8    17 ar
     5     8    11 ar
     6    17     9 ar
     7    11    12 ar
     8    32    14 ar
     9    32    31 ar
    10    14    28 ar
    11     9    60 1
    12     9    10 ar
    13     2     4 1
    14     2    27 2
    15    33    31 1
    16     7     4 ar
    17     7    26 ar
    18    12    10 ar
    19    31    30 ar
    20    10    16 1
    21    34    26 1
    22     4     3 ar
    23    28    27 1
    24    28    29 ar
    25    27     1 1
    26    26    25 ar
    27    16    15 1
    28    30    29 ar
    29     3     1 1
    30     3     5 ar
    31     1     6 1
    32    25     5 ar
    33    25    35 1
    34    15     6 1
    35     6    13 1
    36    13    24 1
    37    13    20 1
    38    24    23 1
    39    20    21 1
    40    23    22 1
    41    21    22 1
    42     5    36 1
    43     6    37 1
    44     7    38 1
    45    11    39 1
    46    12    40 1
    47    13    41 1
    48    14    42 1
    49    15    43 1
    50    15    44 1
    51    17    45 1
    52    20    46 1
    53    20    47 1
    54    21    48 1
    55    21    49 1
    56    22    50 1
    57    22    51 1
    58    23    52 1
    59    23    53 1
    60    24    54 1
    61    24    55 1
    62    29    56 1
    63    30    57 1
    64    32    58 1
@<TRIPOS>SUBSTRUCTURE
     1 9MM         1 TEMP              0 ****  ****    0 ROOT
