@<TRIPOS>MOLECULE
molecule
   71    75     1     0     0
SMALL
bcc


@<TRIPOS>ATOM
      1 C4           0.0000     0.0000     0.0000 ca         1 9MP      -0.056200
      2 C5           1.4050     0.0000     0.0000 ca         1 9MP       0.097400
      3 C6           2.0950     0.0000     1.2150 ca         1 9MP      -0.092000
      4 C10         -1.7540     0.0070    -1.8380 c3         1 9MP      -0.016000
      5 C15         -4.6120    -2.5490    -1.4780 c3         1 9MP      -0.076900
      6 C17         -5.7790     5.3010    -2.2000 c3         1 9MP      -0.084400
      7 C21         -5.7460     2.8310    -1.8300 c3         1 9MP      -0.094400
      8 C22         -4.2460     2.8940    -1.5340 c3         1 9MP       0.114700
      9 C24         -3.8160    -3.7980    -1.8640 c3         1 9MP      -0.082400
     10 C26         -1.6930    -2.4890    -1.7250 c3         1 9MP      -0.083400
     11 C28         -3.8770    -1.3020    -1.9770 c3         1 9MP      -0.083400
     12 C1           1.3910    -0.0010     2.4010 ca         1 9MP       0.081900
     13 C2           0.0000    -0.0030     2.3960 ca         1 9MP       0.107900
     14 C3          -0.6930     0.0030     1.2030 ca         1 9MP      -0.123000
     15 N7           1.8000     0.0020    -1.2990 nc         1 9MP      -0.563100
     16 C9           0.7560     0.0030    -2.0750 cd         1 9MP       0.429800
     17 N8          -0.3810     0.0010    -1.3280 na         1 9MP      -0.133300
     18 C11         -2.4670     1.2400    -1.3450 c          1 9MP       0.641100
     19 O12         -2.0080     1.8780    -0.4220 o          1 9MP      -0.578100
     20 N13         -3.6150     1.6340    -1.9320 ns         1 9MP      -0.583900
     21 C18         -6.4050     4.1470    -1.4140 c3         1 9MP      -0.076400
     22 C16         -4.2790     5.3650    -1.9030 c3         1 9MP      -0.076400
     23 C23         -3.6200     4.0480    -2.3200 c3         1 9MP      -0.094400
     24 C27         -2.4890    -1.2400    -1.3390 c3         1 9MP      -0.082700
     25 C25         -2.4270    -3.7340    -1.2260 c3         1 9MP      -0.076900
     26 C14          0.8000     0.0050    -3.5820 c3         1 9MP       0.200100
     27 C29          1.1810     1.3790    -4.0710 ca         1 9MP      -0.124300
     28 C30          0.1980     2.2830    -4.4270 ca         1 9MP      -0.098500
     29 C31          0.5480     3.5430    -4.8760 ca         1 9MP      -0.132000
     30 C32          1.8810     3.8980    -4.9690 ca         1 9MP      -0.117000
     31 C33          2.8640     2.9930    -4.6130 ca         1 9MP      -0.132000
     32 C34          2.5130     1.7350    -4.1590 ca         1 9MP      -0.098500
     33 O35          1.7660    -0.9470    -4.0310 os         1 9MP      -0.394600
     34 C36          1.4620    -1.5270    -5.3010 c3         1 9MP       0.125700
     35 F20         -0.6750    -0.0040     3.5650 f          1 9MP      -0.129900
     36 F19          2.0580    -0.0030     3.5760 f          1 9MP      -0.130900
     37 H1           3.1780     0.0010     1.2260 ha         1 9MP       0.163000
     38 H2          -1.7380     0.0080    -2.9210 h1         1 9MP       0.079700
     39 H3          -4.7080    -2.5030    -0.4000 hc         1 9MP       0.047450
     40 H4          -5.5940    -2.5940    -1.9320 hc         1 9MP       0.047450
     41 H6          -6.2450     6.2330    -1.9030 hc         1 9MP       0.042700
     42 H7          -6.1880     2.0150    -1.2710 hc         1 9MP       0.046700
     43 H8          -5.8970     2.6720    -2.8910 hc         1 9MP       0.046700
     44 H9          -4.0960     3.0590    -0.4740 h1         1 9MP       0.086700
     45 H10         -3.7160    -3.8420    -2.9420 hc         1 9MP       0.043700
     46 H11         -4.3360    -4.6790    -1.5080 hc         1 9MP       0.043700
     47 H12         -1.5970    -2.5350    -2.8030 hc         1 9MP       0.047450
     48 H13         -0.7110    -2.4440    -1.2710 hc         1 9MP       0.047450
     49 H14         -4.4400    -0.4190    -1.7010 hc         1 9MP       0.047450
     50 H15         -3.7770    -1.3510    -3.0540 hc         1 9MP       0.047450
     51 H16         -1.7770     0.0020     1.2050 ha         1 9MP       0.153000
     52 H17         -4.0120     1.0870    -2.6700 hn         1 9MP       0.314500
     53 H18         -7.4660     4.1010    -1.6270 hc         1 9MP       0.047200
     54 H19         -6.2500     4.3080    -0.3540 hc         1 9MP       0.047200
     55 H20         -3.8360     6.1820    -2.4610 hc         1 9MP       0.047200
     56 H21         -4.1280     5.5230    -0.8420 hc         1 9MP       0.047200
     57 H22         -3.7750     3.8880    -3.3800 hc         1 9MP       0.046700
     58 H23         -2.5580     4.0940    -2.1080 hc         1 9MP       0.046700
     59 H24         -2.5900    -1.1980    -0.2610 hc         1 9MP       0.076700
     60 H25         -1.8640    -4.6180    -1.5020 hc         1 9MP       0.047450
     61 H26         -2.5270    -3.6860    -0.1490 hc         1 9MP       0.047450
     62 H27         -0.1760    -0.2590    -3.9710 h1         1 9MP       0.041700
     63 H28         -0.8460     2.0040    -4.3550 ha         1 9MP       0.137500
     64 H29         -0.2220     4.2520    -5.1550 ha         1 9MP       0.131500
     65 H30          2.1550     4.8840    -5.3220 ha         1 9MP       0.130000
     66 H31          3.9080     3.2720    -4.6840 ha         1 9MP       0.131500
     67 H32          3.2830     1.0260    -3.8800 ha         1 9MP       0.137500
     68 H33          1.9940    -0.9940    -6.0790 h1         1 9MP       0.034033
     69 H34          1.7650    -2.5670    -5.3040 h1         1 9MP       0.034033
     70 H35          0.3960    -1.4620    -5.4830 h1         1 9MP       0.034033
     71 H5          -5.9300     5.1390    -3.2600 hc         1 9MP       0.042700
@<TRIPOS>BOND
     1    34    33 1
     2    15     2 1
     3    15    16 2
     4     3     2 ar
     5     3    12 ar
     6    36    12 1
     7     6    22 1
     8     6    21 1
     9     2     1 ar
    10    26    33 1
    11    26    16 1
    12    26    27 1
    13    12    13 ar
    14    16    17 1
    15    22    23 1
    16    21     7 1
    17    27    28 ar
    18    27    32 ar
    19    23     8 1
    20    28    29 ar
    21     7     8 1
    22     1    17 1
    23     1    14 ar
    24    32    31 ar
    25    17     4 1
    26    13    14 ar
    27    13    35 1
    28     8    20 1
    29    29    30 ar
    30    20    18 1
    31    31    30 ar
    32     4    18 1
    33     4    24 1
    34    18    19 2
    35    10    24 1
    36    10    25 1
    37    24    11 1
    38    25     9 1
    39    11     5 1
    40     9     5 1
    41     3    37 1
    42     4    38 1
    43     5    39 1
    44     5    40 1
    45     6    71 1
    46     6    41 1
    47     7    42 1
    48     7    43 1
    49     8    44 1
    50     9    45 1
    51     9    46 1
    52    10    47 1
    53    10    48 1
    54    11    49 1
    55    11    50 1
    56    14    51 1
    57    20    52 1
    58    21    53 1
    59    21    54 1
    60    22    55 1
    61    22    56 1
    62    23    57 1
    63    23    58 1
    64    24    59 1
    65    25    60 1
    66    25    61 1
    67    26    62 1
    68    28    63 1
    69    29    64 1
    70    30    65 1
    71    31    66 1
    72    32    67 1
    73    34    68 1
    74    34    69 1
    75    34    70 1
@<TRIPOS>SUBSTRUCTURE
     1 9MP         1 TEMP              0 ****  ****    0 ROOT
