@<TRIPOS>MOLECULE
9MP
   71    75     1     0     0
SMALL
bcc


@<TRIPOS>ATOM
      1 C4           0.0000     0.0000     0.0000 ca         1 9MP      -0.222200
      2 C5           1.4050     0.0000     0.0000 ca         1 9MP       0.064400
      3 C6           2.0950     0.0000     1.2150 ca         1 9MP      -0.052000
      4 C10         -1.7540     0.0070    -1.8380 c3         1 9MP      -0.141000
      5 C15         -4.6120    -2.5490    -1.4780 c3         1 9MP      -0.019400
      6 C17         -5.7790     5.3010    -2.2000 c3         1 9MP      -0.028400
      7 C21         -5.7460     2.8310    -1.8300 c3         1 9MP      -0.040400
      8 C22         -4.2460     2.8940    -1.5340 c3         1 9MP       0.013700
      9 C24         -3.8160    -3.7980    -1.8640 c3         1 9MP      -0.027400
     10 C26         -1.6930    -2.4890    -1.7250 c3         1 9MP      -0.038400
     11 C28         -3.8770    -1.3020    -1.9770 c3         1 9MP      -0.038400
     12 C1           1.3910    -0.0010     2.4010 ca         1 9MP       0.061900
     13 C2           0.0000    -0.0030     2.3960 ca         1 9MP       0.084900
     14 C3          -0.6930     0.0030     1.2030 ca         1 9MP      -0.080000
     15 N7           1.8000     0.0020    -1.2990 nc         1 9MP      -0.475100
     16 C9           0.7560     0.0030    -2.0750 cd         1 9MP       0.207800
     17 N8          -0.3810     0.0010    -1.3280 na         1 9MP       0.345700
     18 C11         -2.4670     1.2400    -1.3450 c          1 9MP       0.558100
     19 O12         -2.0080     1.8780    -0.4220 o          1 9MP      -0.621100
     20 N13         -3.6150     1.6340    -1.9320 ns         1 9MP      -0.193900
     21 C18         -6.4050     4.1470    -1.4140 c3         1 9MP      -0.016900
     22 C16         -4.2790     5.3650    -1.9030 c3         1 9MP      -0.016900
     23 C23         -3.6200     4.0480    -2.3200 c3         1 9MP      -0.040400
     24 C27         -2.4890    -1.2400    -1.3390 c3         1 9MP      -0.064700
     25 C25         -2.4270    -3.7340    -1.2260 c3         1 9MP      -0.019400
     26 C14          0.8000     0.0050    -3.5820 c3         1 9MP       0.248100
     27 C29          1.1810     1.3790    -4.0710 ca         1 9MP      -0.138300
     28 C30          0.1980     2.2830    -4.4270 ca         1 9MP      -0.074500
     29 C31          0.5480     3.5430    -4.8760 ca         1 9MP      -0.104000
     30 C32          1.8810     3.8980    -4.9690 ca         1 9MP      -0.091000
     31 C33          2.8640     2.9930    -4.6130 ca         1 9MP      -0.104000
     32 C34          2.5130     1.7350    -4.1590 ca         1 9MP      -0.074500
     33 O35          1.7660    -0.9470    -4.0310 os         1 9MP      -0.381600
     34 C36          1.4620    -1.5270    -5.3010 c3         1 9MP       0.243700
     35 F20         -0.6750    -0.0040     3.5650 f          1 9MP      -0.119900
     36 F19          2.0580    -0.0030     3.5760 f          1 9MP      -0.120900
     37 H1           3.1780     0.0010     1.2260 ha         1 9MP       0.129000
     38 H2          -1.7380     0.0080    -2.9210 h1         1 9MP       0.060700
     39 H3          -4.7080    -2.5030    -0.4000 hc         1 9MP       0.018950
     40 H4          -5.5940    -2.5940    -1.9320 hc         1 9MP       0.018950
     41 H6          -6.2450     6.2330    -1.9030 hc         1 9MP       0.015700
     42 H7          -6.1880     2.0150    -1.2710 hc         1 9MP       0.019450
     43 H8          -5.8970     2.6720    -2.8910 hc         1 9MP       0.019450
     44 H9          -4.0960     3.0590    -0.4740 h1         1 9MP       0.066700
     45 H10         -3.7160    -3.8420    -2.9420 hc         1 9MP       0.016200
     46 H11         -4.3360    -4.6790    -1.5080 hc         1 9MP       0.016200
     47 H12         -1.5970    -2.5350    -2.8030 hc         1 9MP       0.022450
     48 H13         -0.7110    -2.4440    -1.2710 hc         1 9MP       0.022450
     49 H14         -4.4400    -0.4190    -1.7010 hc         1 9MP       0.022450
     50 H15         -3.7770    -1.3510    -3.0540 hc         1 9MP       0.022450
     51 H16         -1.7770     0.0020     1.2050 ha         1 9MP       0.128000
     52 H17         -4.0120     1.0870    -2.6700 hn         1 9MP       0.184500
     53 H18         -7.4660     4.1010    -1.6270 hc         1 9MP       0.018450
     54 H19         -6.2500     4.3080    -0.3540 hc         1 9MP       0.018450
     55 H20         -3.8360     6.1820    -2.4610 hc         1 9MP       0.018450
     56 H21         -4.1280     5.5230    -0.8420 hc         1 9MP       0.018450
     57 H22         -3.7750     3.8880    -3.3800 hc         1 9MP       0.019450
     58 H23         -2.5580     4.0940    -2.1080 hc         1 9MP       0.019450
     59 H24         -2.5900    -1.1980    -0.2610 hc         1 9MP       0.057700
     60 H25         -1.8640    -4.6180    -1.5020 hc         1 9MP       0.018950
     61 H26         -2.5270    -3.6860    -0.1490 hc         1 9MP       0.018950
     62 H27         -0.1760    -0.2590    -3.9710 h1         1 9MP       0.006700
     63 H28         -0.8460     2.0040    -4.3550 ha         1 9MP       0.110000
     64 H29         -0.2220     4.2520    -5.1550 ha         1 9MP       0.103500
     65 H30          2.1550     4.8840    -5.3220 ha         1 9MP       0.102000
     66 H31          3.9080     3.2720    -4.6840 ha         1 9MP       0.103500
     67 H32          3.2830     1.0260    -3.8800 ha         1 9MP       0.110000
     68 H33          1.9940    -0.9940    -6.0790 h1         1 9MP      -0.009967
     69 H34          1.7650    -2.5670    -5.3040 h1         1 9MP      -0.009967
     70 H35          0.3960    -1.4620    -5.4830 h1         1 9MP      -0.009967
     71 H5          -5.9300     5.1390    -3.2600 hc         1 9MP       0.015700
@<TRIPOS>BOND
     1     1     2 ar  
     2     1    14 ar  
     3     1    17 1   
     4     2     3 ar  
     5     2    15 1   
     6     3    12 ar  
     7     3    37 1   
     8     4    17 1   
     9     4    18 1   
    10     4    24 1   
    11     4    38 1   
    12     5     9 1   
    13     5    11 1   
    14     5    39 1   
    15     5    40 1   
    16     6    21 1   
    17     6    22 1   
    18     6    41 1   
    19     6    71 1   
    20     7     8 1   
    21     7    21 1   
    22     7    42 1   
    23     7    43 1   
    24     8    20 1   
    25     8    23 1   
    26     8    44 1   
    27     9    25 1   
    28     9    45 1   
    29     9    46 1   
    30    10    24 1   
    31    10    25 1   
    32    10    47 1   
    33    10    48 1   
    34    11    24 1   
    35    11    49 1   
    36    11    50 1   
    37    12    13 ar  
    38    12    36 1   
    39    13    14 ar  
    40    13    35 1   
    41    14    51 1   
    42    15    16 2   
    43    16    17 1   
    44    16    26 1   
    45    18    19 2   
    46    18    20 1   
    47    20    52 1   
    48    21    53 1   
    49    21    54 1   
    50    22    23 1   
    51    22    55 1   
    52    22    56 1   
    53    23    57 1   
    54    23    58 1   
    55    24    59 1   
    56    25    60 1   
    57    25    61 1   
    58    26    27 1   
    59    26    33 1   
    60    26    62 1   
    61    27    28 ar  
    62    27    32 ar  
    63    28    29 ar  
    64    28    63 1   
    65    29    30 ar  
    66    29    64 1   
    67    30    31 ar  
    68    30    65 1   
    69    31    32 ar  
    70    31    66 1   
    71    32    67 1   
    72    33    34 1   
    73    34    68 1   
    74    34    69 1   
    75    34    70 1   
@<TRIPOS>SUBSTRUCTURE
     1 9MP         1 TEMP              0 ****  ****    0 ROOT
