@<TRIPOS>MOLECULE
9MQ
   79    82     1     0     0
SMALL
bcc


@<TRIPOS>ATOM
      1 C20          0.0000     0.0000     0.0000 c3         1 9MQ       0.057000
      2 C27          1.5300     0.0000     0.0000 c3         1 9MQ       0.008300
      3 C32          2.0410     0.0000     1.4450 c3         1 9MQ       0.025800
      4 C33          2.0410    -1.2520    -0.7170 c3         1 9MQ      -0.033400
      5 N37          3.5040    -0.1320     1.4290 nh         1 9MQ      -0.414600
      6 C38          3.5710    -1.2370    -0.7450 c3         1 9MQ      -0.032400
      7 C40          4.1060    -1.2500     0.6910 c3         1 9MQ       0.159800
      8 C41          4.2960     0.7760     2.0930 c2         1 9MQ       0.240100
      9 N42          3.7600     1.8280     2.6450 n2         1 9MQ      -0.628100
     10 N43          5.6540     0.5740     2.1730 nz         1 9MQ       0.192400
     11 N3          -4.3330     2.7640    -0.0970 n7         1 9MQ      -0.544100
     12 C1          -3.8450     2.7650     1.2850 c3         1 9MQ       0.214500
     13 C2          -4.3480     3.9950     1.9940 c          1 9MQ       0.560100
     14 O6          -4.6100     4.9950     1.3610 o          1 9MQ      -0.669100
     15 C4          -2.3150     2.7640     1.2850 c3         1 9MQ      -0.313400
     16 C8          -1.8130     1.4750     0.6860 c          1 9MQ       0.613100
     17 O15         -2.6010     0.6410     0.2970 o          1 9MQ      -0.625100
     18 N14         -0.4880     1.2520     0.5830 ns         1 9MQ      -0.242900
     19 O13         -5.6850     1.8790    -1.9610 o          1 9MQ      -0.583800
     20 O12         -4.9590     0.3760    -0.1000 o          1 9MQ      -0.583800
     21 C18         -7.8920     2.7210    -0.3290 ca         1 9MQ       0.041000
     22 C11         -6.9380     1.9540     0.2660 ca         1 9MQ      -0.155500
     23 C19         -7.1350     1.4220     1.5390 ca         1 9MQ      -0.023000
     24 C26         -8.2880     1.6580     2.2250 ca         1 9MQ      -0.108000
     25 C35        -10.4980     2.7090     2.3220 ca         1 9MQ      -0.091000
     26 C39        -11.4510     3.4780     1.7270 ca         1 9MQ      -0.109000
     27 C36        -11.2540     4.0070     0.4530 ca         1 9MQ      -0.143000
     28 C31        -10.1000     3.7770    -0.2320 ca         1 9MQ      -0.066000
     29 C25         -9.0940     2.9850     0.3490 ca         1 9MQ      -0.059000
     30 C30         -9.2950     2.4450     1.6440 ca         1 9MQ       0.022000
     31 N5          -4.5050     3.9840     3.3330 n          1 9MQ      -0.082800
     32 C9          -5.0790     5.1480     4.0130 c3         1 9MQ       0.104300
     33 C10         -4.1020     2.8080     4.1090 c3         1 9MQ      -0.099000
     34 C16         -6.5600     4.9400     4.2020 ca         1 9MQ      -0.116300
     35 C17         -2.6640     2.9540     4.5320 c          1 9MQ       0.952600
     36 C21         -7.0290     4.3130     5.3410 ca         1 9MQ      -0.088500
     37 C22         -7.4480     5.3820     3.2400 ca         1 9MQ      -0.088500
     38 O23         -2.0760     1.9900     5.2580 o          1 9MQ      -0.886300
     39 O24         -2.0380     3.9390     4.2180 o          1 9MQ      -0.886300
     40 C28         -8.3870     4.1220     5.5150 ca         1 9MQ      -0.112500
     41 C29         -8.8070     5.1900     3.4140 ca         1 9MQ      -0.112500
     42 C34         -9.2750     4.5580     4.5500 ca         1 9MQ      -0.108000
     43 H201        -0.3610    -0.0890    -1.0170 h1         1 9MQ       0.042200
     44 H202        -0.3610    -0.8360     0.5860 h1         1 9MQ       0.042200
     45 H27          1.8970     0.8820    -0.5110 hc         1 9MQ       0.020700
     46 H321         2.2050     0.9000     0.8640 h1         1 9MQ       0.082200
     47 H322         1.4760     0.3400     2.3040 h1         1 9MQ       0.082200
     48 H331         1.6630    -1.2650    -1.7320 hc         1 9MQ       0.042700
     49 H332         1.7000    -2.1340    -0.1880 hc         1 9MQ       0.042700
     50 H381         3.9140    -0.3410    -1.2480 hc         1 9MQ       0.028700
     51 H382         3.9300    -2.1130    -1.2710 hc         1 9MQ       0.028700
     52 H401         3.8380    -2.1850     1.1680 h1         1 9MQ       0.014200
     53 H402         5.1830    -1.1380     0.6770 h1         1 9MQ       0.014200
     54 H42          2.7720     1.9770     2.5870 hn         1 9MQ       0.394400
     55 H431         6.0580     0.6580     1.2620 hn         1 9MQ       0.220800
     56 H432         5.8340    -0.3410     2.5350 hn         1 9MQ       0.220800
     57 H3          -3.9940     3.4450    -0.7470 hn         1 9MQ       0.360800
     58 H1          -4.2070     1.8800     1.7960 h1         1 9MQ       0.053700
     59 H41C        -2.8610     2.0470     1.8880 hc         1 9MQ       0.125700
     60 H42C        -1.7330     3.2980     2.0270 hc         1 9MQ       0.125700
     61 H14          0.1620     1.9580     0.8690 hn         1 9MQ       0.168500
     62 H19         -6.3620     0.8110     1.9890 ha         1 9MQ       0.122000
     63 H26         -8.4280     1.2380     3.2140 ha         1 9MQ       0.113000
     64 H35        -11.0240     2.0690     3.0190 ha         1 9MQ       0.110000
     65 H39        -12.4780     3.5700     2.0600 ha         1 9MQ       0.098000
     66 H36        -12.0920     4.5030    -0.0200 ha         1 9MQ       0.100000
     67 H31        -10.1980     4.1580    -1.2410 ha         1 9MQ       0.108000
     68 H91C        -4.6060     5.2720     4.9790 h1         1 9MQ       0.044700
     69 H92C        -4.9130     6.0350     3.4130 h1         1 9MQ       0.044700
     70 H101        -4.7300     2.7230     4.9880 h1         1 9MQ       0.031200
     71 H102        -4.2120     1.9190     3.5000 h1         1 9MQ       0.031200
     72 H21         -6.3320     3.9700     6.0970 ha         1 9MQ       0.117000
     73 H22         -7.0810     5.8770     2.3490 ha         1 9MQ       0.117000
     74 H28         -8.7550     3.6280     6.4060 ha         1 9MQ       0.101000
     75 H29         -9.5030     5.5340     2.6590 ha         1 9MQ       0.101000
     76 H34        -10.3390     4.4080     4.6860 ha         1 9MQ       0.097000
     77 H433         6.0550     1.2510     2.7910 hn         1 9MQ       0.220800
     78 S7          -5.4320     1.6260    -0.5860 sy         1 9MQ       1.023200
     79 H18         -7.7660     3.0440    -1.3550 ha         1 9MQ       0.127000
@<TRIPOS>BOND
     1     1     2 1   
     2     1    18 1   
     3     1    43 1   
     4     1    44 1   
     5     2     3 1   
     6     2     4 1   
     7     2    45 1   
     8     3     5 1   
     9     3    46 1   
    10     3    47 1   
    11     4     6 1   
    12     4    48 1   
    13     4    49 1   
    14     5     7 1   
    15     5     8 1   
    16     6     7 1   
    17     6    50 1   
    18     6    51 1   
    19     7    52 1   
    20     7    53 1   
    21     8     9 2   
    22     8    10 1   
    23     9    54 1   
    24    10    55 1   
    25    10    56 1   
    26    10    77 1   
    27    11    12 1   
    28    11    57 1   
    29    11    78 1   
    30    12    13 1   
    31    12    15 1   
    32    12    58 1   
    33    13    14 2   
    34    13    31 1   
    35    15    16 1   
    36    15    59 1   
    37    15    60 1   
    38    16    17 2   
    39    16    18 1   
    40    18    61 1   
    41    19    78 2   
    42    20    78 2   
    43    21    22 ar  
    44    21    29 ar  
    45    21    79 1   
    46    22    23 ar  
    47    22    78 1   
    48    23    24 ar  
    49    23    62 1   
    50    24    30 ar  
    51    24    63 1   
    52    25    26 ar  
    53    25    30 ar  
    54    25    64 1   
    55    26    27 ar  
    56    26    65 1   
    57    27    28 ar  
    58    27    66 1   
    59    28    29 ar  
    60    28    67 1   
    61    29    30 ar  
    62    31    32 1   
    63    31    33 1   
    64    32    34 1   
    65    32    68 1   
    66    32    69 1   
    67    33    35 1   
    68    33    70 1   
    69    33    71 1   
    70    34    36 ar  
    71    34    37 ar  
    72    35    38 1   
    73    35    39 1   
    74    36    40 ar  
    75    36    72 1   
    76    37    41 ar  
    77    37    73 1   
    78    40    42 ar  
    79    40    74 1   
    80    41    42 ar  
    81    41    75 1   
    82    42    76 1   
@<TRIPOS>SUBSTRUCTURE
     1 9MQ         1 TEMP              0 ****  ****    0 ROOT
