@<TRIPOS>MOLECULE
molecule
   79    82     1     0     0
SMALL
bcc


@<TRIPOS>ATOM
      1 C20          0.0000     0.0000     0.0000 c3         1 9MQ       0.121000
      2 C27          1.5300     0.0000     0.0000 c3         1 9MQ      -0.031700
      3 C32          2.0410     0.0000     1.4450 c3         1 9MQ       0.102800
      4 C33          2.0410    -1.2520    -0.7170 c3         1 9MQ      -0.082400
      5 N37          3.5040    -0.1320     1.4290 nh         1 9MQ      -0.741600
      6 C38          3.5710    -1.2370    -0.7450 c3         1 9MQ      -0.094400
      7 C40          4.1060    -1.2500     0.6910 c3         1 9MQ       0.211800
      8 C41          4.2960     0.7760     2.0930 c2         1 9MQ       0.674100
      9 N42          3.7600     1.8280     2.6450 n2         1 9MQ      -0.777100
     10 N43          5.6540     0.5740     2.1730 nz         1 9MQ      -0.803600
     11 N3          -4.3330     2.7640    -0.0970 n7         1 9MQ      -0.883100
     12 C1          -3.8450     2.7650     1.2850 c3         1 9MQ       0.248500
     13 C2          -4.3480     3.9950     1.9940 c          1 9MQ       0.652100
     14 O6          -4.6100     4.9950     1.3610 o          1 9MQ      -0.624100
     15 C4          -2.3150     2.7640     1.2850 c3         1 9MQ      -0.305400
     16 C8          -1.8130     1.4750     0.6860 c          1 9MQ       0.681100
     17 O15         -2.6010     0.6410     0.2970 o          1 9MQ      -0.602100
     18 N14         -0.4880     1.2520     0.5830 ns         1 9MQ      -0.607900
     19 O13         -5.6850     1.8790    -1.9610 o          1 9MQ      -0.632300
     20 O12         -4.9590     0.3760    -0.1000 o          1 9MQ      -0.632300
     21 C18         -7.8920     2.7210    -0.3290 ca         1 9MQ       0.009000
     22 C11         -6.9380     1.9540     0.2660 ca         1 9MQ      -0.309500
     23 C19         -7.1350     1.4220     1.5390 ca         1 9MQ      -0.051000
     24 C26         -8.2880     1.6580     2.2250 ca         1 9MQ      -0.122000
     25 C35        -10.4980     2.7090     2.3220 ca         1 9MQ      -0.117000
     26 C39        -11.4510     3.4780     1.7270 ca         1 9MQ      -0.135000
     27 C36        -11.2540     4.0070     0.4530 ca         1 9MQ      -0.163000
     28 C31        -10.1000     3.7770    -0.2320 ca         1 9MQ      -0.101000
     29 C25         -9.0940     2.9850     0.3490 ca         1 9MQ      -0.050000
     30 C30         -9.2950     2.4450     1.6440 ca         1 9MQ       0.023000
     31 N5          -4.5050     3.9840     3.3330 n          1 9MQ      -0.445800
     32 C9          -5.0790     5.1480     4.0130 c3         1 9MQ       0.161300
     33 C10         -4.1020     2.8080     4.1090 c3         1 9MQ      -0.027000
     34 C16         -6.5600     4.9400     4.2020 ca         1 9MQ      -0.107300
     35 C17         -2.6640     2.9540     4.5320 c          1 9MQ       0.860600
     36 C21         -7.0290     4.3130     5.3410 ca         1 9MQ      -0.114000
     37 C22         -7.4480     5.3820     3.2400 ca         1 9MQ      -0.114000
     38 O23         -2.0760     1.9900     5.2580 o          1 9MQ      -0.837300
     39 O24         -2.0380     3.9390     4.2180 o          1 9MQ      -0.837300
     40 C28         -8.3870     4.1220     5.5150 ca         1 9MQ      -0.136500
     41 C29         -8.8070     5.1900     3.4140 ca         1 9MQ      -0.136500
     42 C34         -9.2750     4.5580     4.5500 ca         1 9MQ      -0.131000
     43 H201        -0.3610    -0.0890    -1.0170 h1         1 9MQ       0.069700
     44 H202        -0.3610    -0.8360     0.5860 h1         1 9MQ       0.069700
     45 H27          1.8970     0.8820    -0.5110 hc         1 9MQ       0.043700
     46 H321         2.2050     0.9000     0.8640 h1         1 9MQ       0.128200
     47 H322         1.4760     0.3400     2.3040 h1         1 9MQ       0.128200
     48 H331         1.6630    -1.2650    -1.7320 hc         1 9MQ       0.070700
     49 H332         1.7000    -2.1340    -0.1880 hc         1 9MQ       0.070700
     50 H381         3.9300    -2.1130    -1.2710 hc         1 9MQ       0.058700
     51 H382         3.9140    -0.3410    -1.2480 hc         1 9MQ       0.058700
     52 H401         5.1830    -1.1380     0.6770 h1         1 9MQ       0.040700
     53 H402         3.8380    -2.1850     1.1680 h1         1 9MQ       0.040700
     54 H42          4.3360     2.4890     3.1280 hn         1 9MQ       0.435400
     55 H431         6.0610     0.6760     1.2650 hn         1 9MQ       0.460800
     56 H432         5.8350    -0.3480     2.5180 hn         1 9MQ       0.460800
     57 H3          -3.9930     3.4440    -0.7480 hn         1 9MQ       0.466800
     58 H1          -4.2070     1.8800     1.7960 h1         1 9MQ       0.073700
     59 H41C        -2.8610     2.0470     1.8870 hc         1 9MQ       0.146200
     60 H42C        -1.7330     3.2980     2.0270 hc         1 9MQ       0.146200
     61 H14          0.1620     1.9580     0.8690 hn         1 9MQ       0.313500
     62 H19         -6.3610     0.8120     1.9890 ha         1 9MQ       0.148000
     63 H26         -8.4280     1.2380     3.2140 ha         1 9MQ       0.141000
     64 H35        -11.0300     2.0670     3.0130 ha         1 9MQ       0.136000
     65 H39        -12.4790     3.5670     2.0570 ha         1 9MQ       0.124000
     66 H36        -12.0920     4.5060    -0.0180 ha         1 9MQ       0.123000
     67 H31        -10.2020     4.1620    -1.2390 ha         1 9MQ       0.136000
     68 H91C        -4.6060     5.2720     4.9790 h1         1 9MQ       0.072700
     69 H92C        -4.9130     6.0350     3.4130 h1         1 9MQ       0.072700
     70 H101        -4.7300     2.7230     4.9880 h1         1 9MQ       0.049200
     71 H102        -4.2120     1.9190     3.5000 h1         1 9MQ       0.049200
     72 H21         -6.3320     3.9700     6.0970 ha         1 9MQ       0.140000
     73 H22         -7.0810     5.8770     2.3490 ha         1 9MQ       0.140000
     74 H28         -8.7550     3.6280     6.4060 ha         1 9MQ       0.124000
     75 H29         -9.5030     5.5340     2.6590 ha         1 9MQ       0.124000
     76 H34        -10.3390     4.4080     4.6860 ha         1 9MQ       0.119000
     77 H433         6.0530     1.2390     2.8050 hn         1 9MQ       0.460800
     78 S7          -5.4320     1.6260    -0.5860 sy         1 9MQ       1.415200
     79 H18         -7.6790     3.2190    -1.2670 ha         1 9MQ       0.153000
@<TRIPOS>BOND
     1    12    13 1
     2    12    11 1
     3    12    15 1
     4    13    31 1
     5    13    14 2
     6    11    78 1
     7    15    16 1
     8    31    32 1
     9    31    33 1
    10    78    22 1
    11    78    20 2
    12    78    19 2
    13    16    18 1
    14    16    17 2
    15    32    34 1
    16    33    35 1
    17    22    21 ar
    18    22    23 ar
    19    18     1 1
    20    34    36 ar
    21    34    37 ar
    22    35    38 1
    23    35    39 1
    24    21    29 ar
    25    23    24 ar
    26     1     2 1
    27    36    40 ar
    28    37    41 ar
    29    29    30 ar
    30    29    28 ar
    31    24    30 ar
    32     2     3 1
    33     2     4 1
    34    40    42 ar
    35    41    42 ar
    36    30    25 ar
    37    28    27 ar
    38     3     5 1
    39     4     6 1
    40    25    26 ar
    41    27    26 ar
    42     5     7 1
    43     5     8 1
    44     6     7 1
    45     8     9 2
    46     8    10 1
    47    12    58 1
    48    11    57 1
    49    15    59 1
    50    15    60 1
    51    32    68 1
    52    32    69 1
    53    33    70 1
    54    33    71 1
    55    18    61 1
    56    21    79 1
    57    23    62 1
    58     1    43 1
    59     1    44 1
    60    36    72 1
    61    37    73 1
    62    24    63 1
    63     2    45 1
    64    40    74 1
    65    41    75 1
    66    28    67 1
    67     3    46 1
    68     3    47 1
    69     4    48 1
    70     4    49 1
    71    42    76 1
    72    25    64 1
    73    27    66 1
    74     6    50 1
    75     6    51 1
    76    26    65 1
    77     7    52 1
    78     7    53 1
    79     9    54 1
    80    10    55 1
    81    10    56 1
    82    77    10 1
@<TRIPOS>SUBSTRUCTURE
     1 9MQ         1 TEMP              0 ****  ****    0 ROOT
