@<TRIPOS>MOLECULE
9MR
   44    45     1     0     0
SMALL
bcc


@<TRIPOS>ATOM
      1 O2B          0.0000     0.0000     0.0000 oh         1 9MR      -0.580800
      2 C2B          1.4270     0.0000     0.0000 c3         1 9MR       0.141100
      3 C3B          1.9320     0.0000     1.4430 c3         1 9MR       0.151100
      4 O3B          1.6390    -1.2620     2.0450 oh         1 9MR      -0.588800
      5 C4B          3.4380     0.2540     1.5030 c3         1 9MR       0.144100
      6 O4B          3.8230     0.4730     2.8570 oh         1 9MR      -0.585800
      7 C5B          3.8160     1.4760     0.6640 c3         1 9MR       0.163100
      8 C6B          5.3270     1.6800     0.6140 c3         1 9MR       0.229400
      9 O6B          5.6020     2.8160    -0.1860 oh         1 9MR      -0.574800
     10 O5B          3.3600     1.3040    -0.6790 os         1 9MR      -0.383600
     11 C1B          1.9390     1.2190    -0.7670 c3         1 9MR       0.375900
     12 O3A          1.5480     1.0740    -2.1320 os         1 9MR      -0.379600
     13 C3A          1.9870     2.1810    -2.9190 c3         1 9MR       0.173100
     14 C4A          2.9310     1.6740    -4.0120 c3         1 9MR       0.180100
     15 O4A          4.1370     1.2250    -3.3940 oh         1 9MR      -0.565800
     16 C5M          3.2650     2.7760    -5.0160 c3         1 9MR       0.114800
     17 N5A          2.0570     3.3620    -5.5920 n7         1 9MR      -0.572200
     18 C1A          1.1990     3.9370    -4.5550 c3         1 9MR       0.153800
     19 C2A          0.7640     2.8750    -3.5350 c3         1 9MR      -0.076700
     20 C6A         -0.1200     3.5040    -2.4550 c3         1 9MR       0.226400
     21 O6A         -1.2570     4.0660    -3.0820 oh         1 9MR      -0.592800
     22 HO2B        -0.3140    -0.8540    -0.2460 ho         1 9MR       0.401000
     23 H2B          1.7820    -0.8970    -0.4930 h1         1 9MR       0.029700
     24 H3B          1.4230     0.7830     1.9920 h1         1 9MR       0.023700
     25 HO3B         1.0960    -1.1300     2.8040 ho         1 9MR       0.400000
     26 H4B          3.9580    -0.6150     1.1170 h1         1 9MR       0.023700
     27 HO4B         4.2560    -0.2960     3.1890 ho         1 9MR       0.399000
     28 H5B          3.3470     2.3550     1.0880 h1         1 9MR       0.023700
     29 H6B1         5.7070     1.8390     1.6150 h1         1 9MR      -0.004300
     30 H6B2         5.7990     0.8060     0.1800 h1         1 9MR      -0.004300
     31 HO6B         6.4710     3.1290     0.0010 ho         1 9MR       0.385000
     32 H1B          1.4980     2.1180    -0.3520 h2         1 9MR       0.003700
     33 H3A          2.5170     2.8850    -2.2890 h1         1 9MR       0.038700
     34 H4A          2.4620     0.8480    -4.5330 h1         1 9MR       0.016700
     35 HO4A         4.5440     0.5720    -3.9380 ho         1 9MR       0.383000
     36 H5M1         3.8280     3.5520    -4.5120 h1         1 9MR       0.010700
     37 H5M2         3.8670     2.3560    -5.8120 h1         1 9MR       0.010700
     38 HN5A         2.3120     4.0750    -6.2470 hn         1 9MR       0.253800
     39 H1A1         0.3180     4.3600    -5.0210 h1         1 9MR       0.013700
     40 H1A2         1.7440     4.7190    -4.0400 h1         1 9MR       0.013700
     41 H2A          0.1820     2.1260    -4.0590 hc         1 9MR       0.052700
     42 H6A1        -0.4320     2.7430    -1.7500 h1         1 9MR      -0.007300
     43 H6A2         0.4310     4.2790    -1.9370 h1         1 9MR      -0.007300
     44 HO6A        -1.8860     4.3170    -2.4260 ho         1 9MR       0.389000
@<TRIPOS>BOND
     1     1     2 1   
     2     1    22 1   
     3     2     3 1   
     4     2    11 1   
     5     2    23 1   
     6     3     4 1   
     7     3     5 1   
     8     3    24 1   
     9     4    25 1   
    10     5     6 1   
    11     5     7 1   
    12     5    26 1   
    13     6    27 1   
    14     7     8 1   
    15     7    10 1   
    16     7    28 1   
    17     8     9 1   
    18     8    29 1   
    19     8    30 1   
    20     9    31 1   
    21    10    11 1   
    22    11    12 1   
    23    11    32 1   
    24    12    13 1   
    25    13    14 1   
    26    13    19 1   
    27    13    33 1   
    28    14    15 1   
    29    14    16 1   
    30    14    34 1   
    31    15    35 1   
    32    16    17 1   
    33    16    36 1   
    34    16    37 1   
    35    17    18 1   
    36    17    38 1   
    37    18    19 1   
    38    18    39 1   
    39    18    40 1   
    40    19    20 1   
    41    19    41 1   
    42    20    21 1   
    43    20    42 1   
    44    20    43 1   
    45    21    44 1   
@<TRIPOS>SUBSTRUCTURE
     1 9MR         1 TEMP              0 ****  ****    0 ROOT
