@<TRIPOS>MOLECULE
9MS
   71    75     1     0     0
SMALL
bcc


@<TRIPOS>ATOM
      1 C4           0.0000     0.0000     0.0000 ca         1 9MS      -0.241200
      2 C5           1.4050     0.0000     0.0000 ca         1 9MS       0.052400
      3 C6           2.0920     0.0000     1.2170 ca         1 9MS      -0.006000
      4 C10         -1.7540     0.0050    -1.8370 c3         1 9MS      -0.134000
      5 C15         -3.4490     1.3350    -3.1020 c3         1 9MS      -0.039900
      6 C17         -3.5000    -3.8650    -6.0460 c3         1 9MS      -0.017400
      7 C20         -5.1330    -4.5970    -4.3020 c3         1 9MS      -0.017400
      8 C21         -4.8920    -3.2980    -3.5310 c3         1 9MS      -0.040900
      9 C22         -3.4620    -2.8140    -3.7790 c3         1 9MS       0.016700
     10 C24         -3.3110     3.8300    -3.1320 c3         1 9MS      -0.027400
     11 C26         -1.6160     2.5000    -1.8660 c3         1 9MS      -0.039900
     12 C28          0.9440    -0.4230    -6.2480 ca         1 9MS      -0.212000
     13 C1           1.3970     0.0010     2.3920 ca         1 9MS      -0.153000
     14 C2           0.0080     0.0020     2.3930 ca         1 9MS       0.117900
     15 C3          -0.6920     0.0060     1.2030 ca         1 9MS      -0.131000
     16 N7           1.8010    -0.0010    -1.2990 nc         1 9MS      -0.491100
     17 C9           0.7570    -0.0010    -2.0750 cd         1 9MS       0.234800
     18 N8          -0.3810    -0.0000    -1.3270 na         1 9MS       0.349700
     19 C11         -1.9810    -1.2210    -2.6830 c          1 9MS       0.547100
     20 O12         -1.0370    -1.8930    -3.0410 o          1 9MS      -0.609100
     21 N13         -3.2320    -1.5700    -3.0420 ns         1 9MS      -0.193900
     22 C16         -3.2610    -2.5650    -5.2760 c3         1 9MS      -0.040900
     23 C19         -4.9320    -4.3480    -5.7980 c3         1 9MS      -0.028400
     24 C27         -1.9790     1.2590    -2.6850 c3         1 9MS      -0.076700
     25 C23         -3.6730     2.5900    -3.9510 c3         1 9MS      -0.018900
     26 C25         -1.8410     3.7530    -2.7140 c3         1 9MS      -0.018900
     27 C33          0.8000    -0.0020    -3.5810 c3         1 9MS       0.198100
     28 O30          1.0280    -1.3330    -4.0500 os         1 9MS      -0.252900
     29 C14          1.0950    -1.5090    -5.3960 ca         1 9MS       0.160100
     30 C31          1.0060    -0.6060    -7.6160 ca         1 9MS      -0.063000
     31 C34          1.2180    -1.8710    -8.1360 ca         1 9MS      -0.074600
     32 C32          1.3680    -2.9530    -7.2890 ca         1 9MS      -0.065000
     33 C29          1.3130    -2.7750    -5.9210 ca         1 9MS      -0.109300
     34 C36          1.4760    -3.9540    -4.9980 c3         1 9MS       0.068200
     35 Cl35         1.2950    -2.0970    -9.8560 cl         1 9MS      -0.038400
     36 F18         -0.6630     0.0020     3.5660 f          1 9MS      -0.130900
     37 H1           3.1760    -0.0000     1.2270 ha         1 9MS       0.114000
     38 H2          -2.4490     0.0030    -1.0050 h1         1 9MS       0.061700
     39 H3          -3.7040     0.4570    -3.6840 hc         1 9MS       0.024450
     40 H4          -4.0720     1.3830    -2.2180 hc         1 9MS       0.024450
     41 H6          -3.3590    -3.6870    -7.1060 hc         1 9MS       0.018450
     42 H7          -4.4310    -5.3510    -3.9650 hc         1 9MS       0.018450
     43 H8          -6.1470    -4.9370    -4.1270 hc         1 9MS       0.018450
     44 H9          -5.5910    -2.5430    -3.8710 hc         1 9MS       0.020950
     45 H10         -5.0330    -3.4770    -2.4720 hc         1 9MS       0.020950
     46 H11         -2.7640    -3.5720    -3.4450 h1         1 9MS       0.060700
     47 H12         -3.4680     4.7170    -3.7340 hc         1 9MS       0.017700
     48 H13         -3.9350     3.8730    -2.2470 hc         1 9MS       0.017700
     49 H14         -0.5750     2.4460    -1.5730 hc         1 9MS       0.024450
     50 H15         -2.2430     2.5450    -0.9840 hc         1 9MS       0.024450
     51 H16          0.7780     0.5660    -5.8400 ha         1 9MS       0.118000
     52 H17          1.9350    -0.0020     3.3330 ha         1 9MS       0.121000
     53 H18         -1.7760     0.0060     1.2080 ha         1 9MS       0.113000
     54 H19         -4.0100    -1.0150    -2.7430 hn         1 9MS       0.186500
     55 H20         -3.9640    -1.8130    -5.6130 hc         1 9MS       0.020950
     56 H21         -2.2480    -2.2250    -5.4510 hc         1 9MS       0.020950
     57 H22         -5.1000    -5.2700    -6.3420 hc         1 9MS       0.015200
     58 H23         -5.6300    -3.5910    -6.1340 hc         1 9MS       0.015200
     59 H24         -1.3550     1.2180    -3.5700 hc         1 9MS       0.059700
     60 H25         -4.7150     2.6440    -4.2440 hc         1 9MS       0.017950
     61 H26         -3.0460     2.5450    -4.8330 hc         1 9MS       0.017950
     62 H27         -1.2180     3.7060    -3.5980 hc         1 9MS       0.017950
     63 H28         -1.5860     4.6310    -2.1330 hc         1 9MS       0.017950
     64 H29          1.6020     0.6430    -3.9200 h1         1 9MS       0.015700
     65 H30         -0.1440     0.3620    -3.9700 h1         1 9MS       0.015700
     66 H31          0.8880     0.2410    -8.2810 ha         1 9MS       0.110000
     67 H32          1.5360    -3.9420    -7.6990 ha         1 9MS       0.117000
     68 H33          0.5790    -4.0750    -4.4040 hc         1 9MS       0.013700
     69 H34          2.3230    -3.7860    -4.3440 hc         1 9MS       0.013700
     70 H35          1.6450    -4.8500    -5.5840 hc         1 9MS       0.013700
     71 H5          -2.8020    -4.6200    -5.7050 hc         1 9MS       0.018450
@<TRIPOS>BOND
     1     1     2 ar  
     2     1    15 ar  
     3     1    18 1   
     4     2     3 ar  
     5     2    16 1   
     6     3    13 ar  
     7     3    37 1   
     8     4    18 1   
     9     4    19 1   
    10     4    24 1   
    11     4    38 1   
    12     5    24 1   
    13     5    25 1   
    14     5    39 1   
    15     5    40 1   
    16     6    22 1   
    17     6    23 1   
    18     6    41 1   
    19     6    71 1   
    20     7     8 1   
    21     7    23 1   
    22     7    42 1   
    23     7    43 1   
    24     8     9 1   
    25     8    44 1   
    26     8    45 1   
    27     9    21 1   
    28     9    22 1   
    29     9    46 1   
    30    10    25 1   
    31    10    26 1   
    32    10    47 1   
    33    10    48 1   
    34    11    24 1   
    35    11    26 1   
    36    11    49 1   
    37    11    50 1   
    38    12    29 ar  
    39    12    30 ar  
    40    12    51 1   
    41    13    14 ar  
    42    13    52 1   
    43    14    15 ar  
    44    14    36 1   
    45    15    53 1   
    46    16    17 2   
    47    17    18 1   
    48    17    27 1   
    49    19    20 2   
    50    19    21 1   
    51    21    54 1   
    52    22    55 1   
    53    22    56 1   
    54    23    57 1   
    55    23    58 1   
    56    24    59 1   
    57    25    60 1   
    58    25    61 1   
    59    26    62 1   
    60    26    63 1   
    61    27    28 1   
    62    27    64 1   
    63    27    65 1   
    64    28    29 1   
    65    29    33 ar  
    66    30    31 ar  
    67    30    66 1   
    68    31    32 ar  
    69    31    35 1   
    70    32    33 ar  
    71    32    67 1   
    72    33    34 1   
    73    34    68 1   
    74    34    69 1   
    75    34    70 1   
@<TRIPOS>SUBSTRUCTURE
     1 9MS         1 TEMP              0 ****  ****    0 ROOT
