@<TRIPOS>MOLECULE
9MT
   44    46     1     0     0
SMALL
bcc


@<TRIPOS>ATOM
      1 N1          -0.8850     0.2340    -2.4420 n1         1 9MT      -0.064000
      2 C17         -0.4910     0.1260    -1.3820 c1         1 9MT      -0.162000
      3 C16          0.0000     0.0000     0.0000 c3         1 9MT       0.045000
      4 C15          1.5300     0.0000     0.0000 c3         1 9MT      -0.185000
      5 S            2.1340     0.0000     1.7060 ss         1 9MT       0.083000
      6 C14          1.8280    -1.6810     2.1390 c2         1 9MT      -0.147000
      7 C13          0.6500    -2.0540     2.8300 ca         1 9MT      -0.016000
      8 C12         -0.3120    -1.1040     3.1950 ca         1 9MT      -0.164000
      9 C10         -1.4450    -1.5080     3.8660 ca         1 9MT       0.115000
     10 O           -2.3820    -0.5900     4.2220 os         1 9MT      -0.187000
     11 C11         -3.5330    -1.0730     4.9170 c3         1 9MT       0.046000
     12 C9          -1.6380    -2.8540     4.1850 ca         1 9MT      -0.192000
     13 C8          -0.7170    -3.7950     3.8420 ca         1 9MT      -0.028000
     14 C7           0.4500    -3.4170     3.1550 ca         1 9MT      -0.063000
     15 N            1.3670    -4.3280     2.8070 n2         1 9MT      -0.008000
     16 C5           2.4630    -3.9940     2.1660 c2         1 9MT      -0.083000
     17 C6           3.4550    -5.0690     1.8040 c3         1 9MT      -0.072000
     18 C4           2.7310    -2.6810     1.8070 c2         1 9MT      -0.068000
     19 C3           3.9970    -2.3410     1.0650 c3         1 9MT      -0.380000
     20 C2           5.0990    -1.9940     2.0690 c3         1 9MT      -0.048000
     21 C1           6.3520    -1.5410     1.3170 DU         1 9MT      -0.037000
     22 C            7.4520    -1.1930     2.3210 c3         1 9MT      -0.126000
     23 H161        -0.3610    -0.9270     0.4280 hc         1 9MT       0.083500
     24 H162        -0.3610     0.8350     0.5890 hc         1 9MT       0.083500
     25 H151         1.8910     0.7810    -0.6580 h1         1 9MT       0.104500
     26 H152         1.8910    -0.9600    -0.3470 h1         1 9MT       0.104500
     27 H12         -0.1710    -0.0620     2.9340 ha         1 9MT       0.151000
     28 H9          -2.5320    -3.1620     4.7130 ha         1 9MT       0.125000
     29 H111        -3.8070    -2.0470     4.5290 h1         1 9MT       0.040333
     30 H112        -4.3570    -0.3830     4.7740 h1         1 9MT       0.040333
     31 H113        -3.3090    -1.1550     5.9730 h1         1 9MT       0.040333
     32 H8          -0.8840    -4.8340     4.0980 ha         1 9MT       0.116000
     33 H61C         3.5040    -5.7990     2.6030 hc         1 9MT       0.054000
     34 H62C         4.4330    -4.6240     1.6600 hc         1 9MT       0.054000
     35 H63C         3.1420    -5.5560     0.8880 hc         1 9MT       0.054000
     36 H31C         4.3270    -3.2040     0.5000 hc         1 9MT       0.087500
     37 H32C         4.7660    -2.0580     1.7740 hc         1 9MT       0.087500
     38 H21C         4.7370    -2.1630     3.0760 hc         1 9MT       0.131000
     39 H22C         5.9640    -2.6200     1.8870 DU         1 9MT       0.092000
     40 H11C         6.1540    -0.5980     0.8200 ha         1 9MT       0.070000
     41 H12C         6.6200    -2.2880     0.5800 ha         1 9MT       0.070000
     42 HC1          7.0980    -0.4220     2.9930 hc         1 9MT       0.051000
     43 HC2          7.7140    -2.0770     2.8900 hc         1 9MT       0.051000
     44 HC3          8.3260    -0.8350     1.7890 hc         1 9MT       0.051000
@<TRIPOS>BOND
     1     1     2 1   
     2     2     3 1   
     3     3     4 1   
     4     3    23 1   
     5     3    24 1   
     6     4     5 1   
     7     4    25 1   
     8     4    26 1   
     9     5     6 1   
    10     6     7 1   
    11     6    18 1   
    12     7     8 1   
    13     7    14 1   
    14     8     9 1   
    15     8    27 1   
    16     9    10 1   
    17     9    12 1   
    18    10    11 1   
    19    11    29 1   
    20    11    30 1   
    21    11    31 1   
    22    12    13 1   
    23    12    28 1   
    24    13    14 1   
    25    13    32 1   
    26    14    15 1   
    27    15    16 1   
    28    16    17 1   
    29    16    18 1   
    30    17    33 1   
    31    17    34 1   
    32    17    35 1   
    33    18    19 1   
    34    19    20 1   
    35    19    36 1   
    36    19    37 1   
    37    20    21 1   
    38    20    38 1   
    39    20    39 1   
    40    21    22 1   
    41    21    39 1   
    42    21    40 1   
    43    21    41 1   
    44    22    42 1   
    45    22    43 1   
    46    22    44 1   
@<TRIPOS>SUBSTRUCTURE
     1 9MT         1 TEMP              0 ****  ****    0 ROOT
