@<TRIPOS>MOLECULE
molecule
   44    45     1     0     0
SMALL
bcc


@<TRIPOS>ATOM
      1 N1          -0.8850     0.2340    -2.4420 n1         1 9MT      -0.379800
      2 C17         -0.4910     0.1260    -1.3820 c1         1 9MT       0.213700
      3 C16          0.0000     0.0000     0.0000 c3         1 9MT      -0.022300
      4 C15          1.5300     0.0000     0.0000 c3         1 9MT       0.000700
      5 S            2.1340     0.0000     1.7060 ss         1 9MT      -0.252000
      6 C14          1.8280    -1.6810     2.1390 ca         1 9MT       0.061900
      7 C13          0.6500    -2.0540     2.8300 ca         1 9MT      -0.101300
      8 C12         -0.3120    -1.1040     3.1950 ca         1 9MT      -0.165000
      9 C10         -1.4450    -1.5080     3.8660 ca         1 9MT       0.142100
     10 O           -2.3820    -0.5900     4.2220 os         1 9MT      -0.324900
     11 C11         -3.5330    -1.0730     4.9170 c3         1 9MT       0.123700
     12 C9          -1.6380    -2.8540     4.1850 ca         1 9MT      -0.201000
     13 C8          -0.7170    -3.7950     3.8420 ca         1 9MT      -0.125300
     14 C7           0.4500    -3.4170     3.1550 ca         1 9MT       0.384600
     15 N            1.3670    -4.3280     2.8070 nb         1 9MT      -0.666000
     16 C5           2.4630    -3.9940     2.1660 ca         1 9MT       0.406600
     17 C6           3.4550    -5.0690     1.8040 c3         1 9MT      -0.140400
     18 C4           2.7310    -2.6810     1.8070 ca         1 9MT      -0.141600
     19 C3           3.9970    -2.3410     1.0650 c3         1 9MT      -0.355100
     20 C2           5.0990    -1.9940     2.0690 c3         1 9MT      -0.221400
     21 C1           6.3520    -1.5410     1.3170 c3         1 9MT      -0.032400
     22 C            7.4520    -1.1930     2.3210 c3         1 9MT      -0.109100
     23 H161        -0.3610    -0.9270     0.4280 hc         1 9MT       0.080200
     24 H162        -0.3610     0.8350     0.5890 hc         1 9MT       0.080200
     25 H151         1.8910     0.7810    -0.6580 h1         1 9MT       0.091200
     26 H152         1.8910    -0.9600    -0.3470 h1         1 9MT       0.091200
     27 H12         -0.1710    -0.0620     2.9340 ha         1 9MT       0.167000
     28 H9          -2.5320    -3.1620     4.7130 ha         1 9MT       0.141000
     29 H111        -3.8070    -2.0470     4.5290 h1         1 9MT       0.043700
     30 H112        -4.3570    -0.3830     4.7740 h1         1 9MT       0.043700
     31 H113        -3.3090    -1.1550     5.9730 h1         1 9MT       0.043700
     32 H8          -0.8840    -4.8340     4.0980 ha         1 9MT       0.150000
     33 H61C         3.5040    -5.7990     2.6030 hc         1 9MT       0.050033
     34 H62C         4.4330    -4.6240     1.6600 hc         1 9MT       0.050033
     35 H63C         3.1420    -5.5560     0.8880 hc         1 9MT       0.050033
     36 H31C         4.3270    -3.2040     0.5000 hc         1 9MT       0.151700
     37 H32C         4.7660    -2.0580     1.7740 hc         1 9MT       0.151700
     38 H21C         4.7370    -2.1630     3.0760 hc         1 9MT       0.118200
     39 H22C         5.9640    -2.6200     1.8870 hc         1 9MT       0.118200
     40 H11C         6.1540    -0.5980     0.8200 hc         1 9MT       0.069700
     41 H12C         6.6200    -2.2880     0.5800 hc         1 9MT       0.069700
     42 HC1          7.0980    -0.4220     2.9930 hc         1 9MT       0.048033
     43 HC2          7.7140    -2.0770     2.8900 hc         1 9MT       0.048033
     44 HC3          8.3260    -0.8350     1.7890 hc         1 9MT       0.048033
@<TRIPOS>BOND
     1     1     2 3
     2     2     3 1
     3     3     4 1
     4     4     5 1
     5     5     6 1
     6     6     7 ar
     7     6    18 ar
     8     7     8 ar
     9     7    14 ar
    10     8     9 ar
    11     9    10 1
    12     9    12 ar
    13    10    11 1
    14    12    13 ar
    15    13    14 ar
    16    14    15 ar
    17    15    16 ar
    18    16    17 1
    19    16    18 ar
    20    18    19 1
    21    19    20 1
    22    20    21 1
    23    21    22 1
    24     3    23 1
    25     3    24 1
    26     4    25 1
    27     4    26 1
    28     8    27 1
    29    12    28 1
    30    11    29 1
    31    11    30 1
    32    11    31 1
    33    13    32 1
    34    17    33 1
    35    17    34 1
    36    17    35 1
    37    19    36 1
    38    19    37 1
    39    20    38 1
    40    20    39 1
    41    21    40 1
    42    21    41 1
    43    22    42 1
    44    22    43 1
    45    22    44 1
@<TRIPOS>SUBSTRUCTURE
     1 9MT         1 TEMP              0 ****  ****    0 ROOT
