@<TRIPOS>MOLECULE
9MU
   67    70     1     0     0
SMALL
bcc


@<TRIPOS>ATOM
      1 N12          0.0000     0.0000     0.0000 n7         1 9MU      -0.543100
      2 C15          1.4650     0.0000     0.0000 c3         1 9MU       0.138500
      3 C17          1.9670     0.0000     1.4200 c          1 9MU       0.556100
      4 O20          1.1790    -0.0000     2.3420 o          1 9MU      -0.590100
      5 C16          1.9750    -1.2490    -0.7220 c3         1 9MU       0.026900
      6 C18          1.5520    -1.2020    -2.1670 ca         1 9MU      -0.108300
      7 C21          2.3180    -0.5140    -3.0900 ca         1 9MU      -0.096000
      8 C22          0.4010    -1.8530    -2.5720 ca         1 9MU      -0.096000
      9 C24          1.9300    -0.4710    -4.4150 ca         1 9MU      -0.090000
     10 C25          0.0130    -1.8100    -3.8980 ca         1 9MU      -0.090000
     11 C27          0.7760    -1.1180    -4.8200 ca         1 9MU      -0.090000
     12 S11         -0.8280     1.4260    -0.1540 sy         1 9MU       1.041200
     13 O14         -2.2080     1.0900    -0.1590 o          1 9MU      -0.579800
     14 O13         -0.2510     2.3280     0.7810 o          1 9MU      -0.579800
     15 C3          -1.3080     1.8020    -2.7900 ca         1 9MU       0.037000
     16 C7          -0.4670     2.0700    -1.7540 ca         1 9MU      -0.133500
     17 C9           0.6760     2.8450    -1.9400 ca         1 9MU      -0.078000
     18 C5           0.9850     3.3560    -3.1620 ca         1 9MU      -0.112000
     19 C6           0.4280     3.6080    -5.5350 ca         1 9MU      -0.106000
     20 C10         -0.4060     3.3300    -6.5740 ca         1 9MU      -0.088000
     21 C8          -1.5470     2.5510    -6.3890 ca         1 9MU      -0.114000
     22 C4          -1.8640     2.0530    -5.1620 ca         1 9MU      -0.070000
     23 C1          -1.0200     2.3090    -4.0680 ca         1 9MU      -0.058000
     24 C2           0.1390     3.1030    -4.2560 ca         1 9MU       0.010000
     25 N19          3.2920    -0.0010     1.6670 ns         1 9MU      -0.237900
     26 C23          3.7800    -0.0000     3.0490 c3         1 9MU       0.065000
     27 C26          5.3100    -0.0010     3.0480 c3         1 9MU      -0.081700
     28 C28          5.8220     1.3090     2.4380 c3         1 9MU       0.174800
     29 C29          5.8210    -0.1220     4.4860 c3         1 9MU      -0.019400
     30 N30          7.2850     1.3490     2.5640 nh         1 9MU      -0.457600
     31 C31          7.3510    -0.1550     4.4840 c3         1 9MU      -0.036400
     32 C32          7.8860     1.1520     3.8900 c3         1 9MU       0.168800
     33 C33          8.0780     1.5670     1.4620 c2         1 9MU       0.271100
     34 N34          9.4460     1.4890     1.5720 nz         1 9MU       0.187400
     35 N35          7.5310     1.8470     0.3110 n2         1 9MU      -0.645100
     36 H12         -0.5000    -0.8560     0.1360 hn         1 9MU       0.358800
     37 H15          1.8260     0.8850    -0.5110 h1         1 9MU       0.048700
     38 H161         1.5590    -2.1330    -0.2530 hc         1 9MU       0.021200
     39 H162         3.0560    -1.2840    -0.6640 hc         1 9MU       0.021200
     40 H21          3.2210    -0.0080    -2.7730 ha         1 9MU       0.100000
     41 H22         -0.1970    -2.3960    -1.8500 ha         1 9MU       0.100000
     42 H24          2.5290     0.0700    -5.1380 ha         1 9MU       0.107500
     43 H25         -0.8890    -2.3180    -4.2150 ha         1 9MU       0.107500
     44 H27          0.4720    -1.0840    -5.8590 ha         1 9MU       0.109000
     45 H9           1.0810     3.5480    -1.2220 ha         1 9MU       0.129000
     46 H5           1.7950     4.0750    -3.1820 ha         1 9MU       0.106000
     47 H6           1.2010     4.3130    -5.8170 ha         1 9MU       0.111000
     48 H10         -0.2230     3.7320    -7.5630 ha         1 9MU       0.106000
     49 H8          -2.1910     2.4010    -7.2470 ha         1 9MU       0.109000
     50 H4          -2.8690     1.6490    -5.1540 ha         1 9MU       0.117000
     51 H19          3.9420    -0.0420     0.9070 hn         1 9MU       0.166500
     52 H231         3.4200     0.8850     3.5590 h1         1 9MU       0.041700
     53 H232         3.4190    -0.8840     3.5600 h1         1 9MU       0.041700
     54 H26          5.6760    -0.8370     2.4640 hc         1 9MU       0.037700
     55 H281         5.3890     2.1480     2.9680 h1         1 9MU       0.044200
     56 H282         5.5470     1.3530     1.3910 h1         1 9MU       0.044200
     57 H291         5.4810     0.7290     5.0620 hc         1 9MU       0.042700
     58 H292         5.4420    -1.0370     4.9260 hc         1 9MU       0.042700
     59 H311         7.6930    -0.9900     3.8840 hc         1 9MU       0.034700
     60 H312         7.7100    -0.2630     5.5000 hc         1 9MU       0.034700
     61 H321         8.9630     1.0920     3.7950 h1         1 9MU       0.019200
     62 H322         7.6170     1.9790     4.5360 h1         1 9MU       0.019200
     63 H341         9.7670     2.1660     2.2360 hn         1 9MU       0.226467
     64 H342         9.8630     1.6730     0.6820 hn         1 9MU       0.226467
     65 H35          6.5360     1.9040     0.2280 hn         1 9MU       0.386400
     66 H343         9.7050     0.5720     1.8780 hn         1 9MU       0.226467
     67 H3          -2.3610     1.6440    -2.5890 ha         1 9MU       0.139000
@<TRIPOS>BOND
     1     1     2 1   
     2     1    12 1   
     3     1    36 1   
     4     2     3 1   
     5     2     5 1   
     6     2    37 1   
     7     3     4 2   
     8     3    25 1   
     9     5     6 1   
    10     5    38 1   
    11     5    39 1   
    12     6     7 ar  
    13     6     8 ar  
    14     7     9 ar  
    15     7    40 1   
    16     8    10 ar  
    17     8    41 1   
    18     9    11 ar  
    19     9    42 1   
    20    10    11 ar  
    21    10    43 1   
    22    11    44 1   
    23    12    13 2   
    24    12    14 2   
    25    12    16 1   
    26    15    16 ar  
    27    15    23 ar  
    28    15    67 1   
    29    16    17 ar  
    30    17    18 ar  
    31    17    45 1   
    32    18    24 ar  
    33    18    46 1   
    34    19    20 ar  
    35    19    24 ar  
    36    19    47 1   
    37    20    21 ar  
    38    20    48 1   
    39    21    22 ar  
    40    21    49 1   
    41    22    23 ar  
    42    22    50 1   
    43    23    24 ar  
    44    25    26 1   
    45    25    51 1   
    46    26    27 1   
    47    26    52 1   
    48    26    53 1   
    49    27    28 1   
    50    27    29 1   
    51    27    54 1   
    52    28    30 1   
    53    28    55 1   
    54    28    56 1   
    55    29    31 1   
    56    29    57 1   
    57    29    58 1   
    58    30    32 1   
    59    30    33 1   
    60    31    32 1   
    61    31    59 1   
    62    31    60 1   
    63    32    61 1   
    64    32    62 1   
    65    33    34 1   
    66    33    35 2   
    67    34    63 1   
    68    34    64 1   
    69    34    66 1   
    70    35    65 1   
@<TRIPOS>SUBSTRUCTURE
     1 9MU         1 TEMP              0 ****  ****    0 ROOT
