@<TRIPOS>MOLECULE
molecule
   67    70     1     0     0
SMALL
bcc


@<TRIPOS>ATOM
      1 N12          0.0000     0.0000     0.0000 n7         1 9MU      -0.881100
      2 C15          1.4650     0.0000     0.0000 c3         1 9MU       0.186500
      3 C17          1.9670     0.0000     1.4200 c          1 9MU       0.641100
      4 O20          1.1790    -0.0000     2.3420 o          1 9MU      -0.561100
      5 C16          1.9750    -1.2490    -0.7220 c3         1 9MU      -0.038100
      6 C18          1.5520    -1.2020    -2.1670 ca         1 9MU      -0.097300
      7 C21          2.3180    -0.5140    -3.0900 ca         1 9MU      -0.121500
      8 C22          0.4010    -1.8530    -2.5720 ca         1 9MU      -0.121500
      9 C24          1.9300    -0.4710    -4.4150 ca         1 9MU      -0.118500
     10 C25          0.0130    -1.8100    -3.8980 ca         1 9MU      -0.118500
     11 C27          0.7760    -1.1180    -4.8200 ca         1 9MU      -0.116000
     12 S11         -0.8280     1.4260    -0.1540 sy         1 9MU       1.427200
     13 O14         -2.2080     1.0900    -0.1590 o          1 9MU      -0.626300
     14 O13         -0.2510     2.3280     0.7810 o          1 9MU      -0.626300
     15 C3          -1.3080     1.8020    -2.7900 ca         1 9MU       0.006000
     16 C7          -0.4670     2.0700    -1.7540 ca         1 9MU      -0.274500
     17 C9           0.6760     2.8450    -1.9400 ca         1 9MU      -0.102000
     18 C5           0.9850     3.3560    -3.1620 ca         1 9MU      -0.139000
     19 C6           0.4280     3.6080    -5.5350 ca         1 9MU      -0.135000
     20 C10         -0.4060     3.3300    -6.5740 ca         1 9MU      -0.119000
     21 C8          -1.5470     2.5510    -6.3890 ca         1 9MU      -0.144000
     22 C4          -1.8640     2.0530    -5.1620 ca         1 9MU      -0.104000
     23 C1          -1.0200     2.3090    -4.0680 ca         1 9MU      -0.059000
     24 C2           0.1390     3.1030    -4.2560 ca         1 9MU       0.005000
     25 N19          3.2920    -0.0010     1.6670 ns         1 9MU      -0.605900
     26 C23          3.7800    -0.0000     3.0490 c3         1 9MU       0.122000
     27 C26          5.3100    -0.0010     3.0480 c3         1 9MU      -0.113700
     28 C28          5.8220     1.3090     2.4380 c3         1 9MU       0.243800
     29 C29          5.8210    -0.1220     4.4860 c3         1 9MU      -0.077400
     30 N30          7.2850     1.3490     2.5640 nh         1 9MU      -0.765600
     31 C31          7.3510    -0.1550     4.4840 c3         1 9MU      -0.096400
     32 C32          7.8860     1.1520     3.8900 c3         1 9MU       0.212800
     33 C33          8.0780     1.5670     1.4620 c2         1 9MU       0.696100
     34 N34          9.4460     1.4890     1.5720 nz         1 9MU      -0.805600
     35 N35          7.5310     1.8470     0.3110 n2         1 9MU      -0.800100
     36 H12         -0.5000    -0.8600     0.1060 hn         1 9MU       0.464800
     37 H15          1.8260     0.8850    -0.5110 h1         1 9MU       0.082700
     38 H161         3.0560    -1.2850    -0.6630 hc         1 9MU       0.054700
     39 H162         1.5590    -2.1330    -0.2530 hc         1 9MU       0.054700
     40 H21          3.2210    -0.0080    -2.7730 ha         1 9MU       0.124500
     41 H22         -0.1970    -2.3960    -1.8500 ha         1 9MU       0.124500
     42 H24          2.5290     0.0700    -5.1380 ha         1 9MU       0.135000
     43 H25         -0.8890    -2.3180    -4.2150 ha         1 9MU       0.135000
     44 H27          0.4720    -1.0840    -5.8590 ha         1 9MU       0.137000
     45 H9           1.0890     3.6270    -1.3140 ha         1 9MU       0.161000
     46 H5           1.7190     4.1470    -3.2560 ha         1 9MU       0.132000
     47 H6           1.1540     4.3550    -5.8340 ha         1 9MU       0.138000
     48 H10         -0.2690     3.7690    -7.5550 ha         1 9MU       0.134000
     49 H8          -2.1950     2.4640    -7.2530 ha         1 9MU       0.136000
     50 H4          -2.8880     1.7020    -5.1990 ha         1 9MU       0.146000
     51 H19          3.9430     0.0030     0.9070 hn         1 9MU       0.306500
     52 H231         3.4200     0.8850     3.5590 h1         1 9MU       0.069700
     53 H232         3.4190    -0.8840     3.5600 h1         1 9MU       0.069700
     54 H26          5.6760    -0.8370     2.4640 hc         1 9MU       0.063700
     55 H281         5.5470     1.3530     1.3910 h1         1 9MU       0.087700
     56 H282         5.3900     2.1480     2.9690 h1         1 9MU       0.087700
     57 H291         5.4420    -1.0370     4.9260 hc         1 9MU       0.071200
     58 H292         5.4810     0.7300     5.0620 hc         1 9MU       0.071200
     59 H311         7.7100    -0.2630     5.5000 hc         1 9MU       0.065700
     60 H312         7.6930    -0.9900     3.8840 hc         1 9MU       0.065700
     61 H321         7.6170     1.9790     4.5360 h1         1 9MU       0.048700
     62 H322         8.9630     1.0920     3.7950 h1         1 9MU       0.048700
     63 H341         9.8640     1.6690     0.6810 hn         1 9MU       0.467133
     64 H342         9.7690     2.1670     2.2340 hn         1 9MU       0.467133
     65 H35          8.1090     2.0060    -0.4910 hn         1 9MU       0.435400
     66 H343         9.7040     0.5720     1.8800 hn         1 9MU       0.467133
     67 H3          -2.3850     1.6910    -2.7550 ha         1 9MU       0.171000
@<TRIPOS>BOND
     1    23    24 ar
     2    23    15 ar
     3    23    22 ar
     4    24    18 ar
     5    24    19 ar
     6    15    16 ar
     7    22    21 ar
     8    18    17 ar
     9    19    20 ar
    10    16    17 ar
    11    16    12 1
    12    21    20 ar
    13    12     1 1
    14    12    14 2
    15    12    13 2
    16     1     2 1
    17     2     5 1
    18     2     3 1
    19     5     6 1
    20     3    25 1
    21     3     4 2
    22     6     7 ar
    23     6     8 ar
    24    25    26 1
    25     7     9 ar
    26     8    10 ar
    27    26    27 1
    28     9    11 ar
    29    10    11 ar
    30    27    28 1
    31    27    29 1
    32    28    30 1
    33    29    31 1
    34    30    32 1
    35    30    33 1
    36    31    32 1
    37    33    34 1
    38    33    35 2
    39    15    67 1
    40    22    50 1
    41    18    46 1
    42    19    47 1
    43    21    49 1
    44    17    45 1
    45    20    48 1
    46     1    36 1
    47     2    37 1
    48     5    38 1
    49     5    39 1
    50    25    51 1
    51     7    40 1
    52     8    41 1
    53    26    52 1
    54    26    53 1
    55     9    42 1
    56    10    43 1
    57    27    54 1
    58    11    44 1
    59    28    55 1
    60    28    56 1
    61    29    57 1
    62    29    58 1
    63    31    59 1
    64    31    60 1
    65    32    61 1
    66    32    62 1
    67    34    63 1
    68    34    64 1
    69    35    65 1
    70    66    34 1
@<TRIPOS>SUBSTRUCTURE
     1 9MU         1 TEMP              0 ****  ****    0 ROOT
