@<TRIPOS>MOLECULE
molecule
   54    58     1     0     0
SMALL
bcc


@<TRIPOS>ATOM
      1 C4           0.0000     0.0000     0.0000 c3         1 9MV      -0.092700
      2 C5          -0.5270    -0.0730    -1.4100 ca         1 9MV      -0.149300
      3 C6          -1.2600    -1.2530    -1.4890 ca         1 9MV       0.093600
      4 C7           2.7380     3.5150     1.8160 cc         1 9MV      -0.263600
      5 C10          1.5260     0.0000     0.0000 c3         1 9MV      -0.073900
      6 C20          2.0330     0.0000     1.4460 c3         1 9MV       0.228800
      7 C21          0.7400    -6.4200    -0.8980 ca         1 9MV      -0.083600
      8 C22          2.0080     4.6140     1.6220 cd         1 9MV      -0.034000
      9 C26          0.7030    -5.8760     0.3880 ca         1 9MV      -0.102500
     10 C28         -1.0170     0.4130    -3.7000 ca         1 9MV      -0.055900
     11 O31          1.6810    -8.0140    -2.3220 o          1 9MV      -0.832300
     12 C12          1.6540    -7.5400    -1.2040 c          1 9MV       0.879200
     13 O24          2.4570    -8.0350    -0.2430 o          1 9MV      -0.832300
     14 C32         -0.1570    -4.8340     0.6680 ca         1 9MV      -0.141500
     15 C29         -0.9810    -4.3280    -0.3220 ca         1 9MV      -0.163300
     16 N2          -1.2390    -1.9150    -0.2610 n          1 9MV      -0.354000
     17 C3          -0.5250    -1.2500     0.6640 c          1 9MV       0.722500
     18 O17         -0.3370    -1.5900     1.8140 o          1 9MV      -0.602500
     19 N8           1.4180     1.1250     2.1630 n3         1 9MV      -0.807500
     20 C19         -0.0460     1.2510     2.1590 c3         1 9MV       0.228800
     21 C9          -0.5370     1.2410     0.7070 c3         1 9MV      -0.073900
     22 S1           2.3560     2.2310     2.9610 sy         1 9MV       1.443200
     23 O14          3.5850     1.5780     3.2540 o          1 9MV      -0.632800
     24 O15          1.5300     2.8150     3.9570 o          1 9MV      -0.632800
     25 C25          2.5020     5.4820     0.6630 cd         1 9MV      -0.186000
     26 C23          3.6320     5.0870     0.0780 cc         1 9MV      -0.050100
     27 S11          4.1340     3.5380     0.7470 ss         1 9MV      -0.042800
     28 C18         -0.4050     0.7530    -2.5050 ca         1 9MV      -0.051000
     29 Br34        -0.8530     1.5450    -5.2050 br         1 9MV      -0.111100
     30 C30         -1.7480    -0.7570    -3.7890 ca         1 9MV      -0.067000
     31 C16         -1.8730    -1.5870    -2.6940 ca         1 9MV      -0.153000
     32 C33         -0.9490    -4.8610    -1.5980 ca         1 9MV      -0.141500
     33 C27         -0.0940    -5.9040    -1.8920 ca         1 9MV      -0.102500
     34 H1           1.8860     0.8860    -0.5080 hc         1 9MV       0.056700
     35 H2           1.8860    -0.8860    -0.5080 hc         1 9MV       0.056700
     36 H3          -2.7960    -3.2620    -0.6370 h1         1 9MV       0.058700
     37 H4          -2.2120    -3.2420     1.0330 h1         1 9MV       0.058700
     38 H5           1.7570    -0.9310     1.9270 h1         1 9MV       0.075200
     39 H6           3.1110     0.1120     1.4520 h1         1 9MV       0.075200
     40 H7           1.0970     4.8130     2.1740 ha         1 9MV       0.159000
     41 H8           1.2150    -6.3610     1.2100 ha         1 9MV       0.151500
     42 H10         -0.1950    -4.4190     1.6670 ha         1 9MV       0.111000
     43 H11         -0.3310     2.1840     2.6310 h1         1 9MV       0.075200
     44 H12         -0.4830     0.4180     2.6960 h1         1 9MV       0.075200
     45 H13         -0.1790     2.1280     0.1990 hc         1 9MV       0.056700
     46 H14         -1.6200     1.2220     0.6930 hc         1 9MV       0.056700
     47 H15          2.0070     6.4110     0.4080 ha         1 9MV       0.148000
     48 H16          4.1620     5.6350    -0.6930 h4         1 9MV       0.170000
     49 H17          0.1370     1.6870    -2.4200 ha         1 9MV       0.140000
     50 H18         -2.2270    -1.0230    -4.7240 ha         1 9MV       0.144000
     51 H19         -2.4480    -2.5020    -2.7720 ha         1 9MV       0.148000
     52 H20         -1.6020    -4.4650    -2.3660 ha         1 9MV       0.111000
     53 H21         -0.1870    -6.3970    -2.8520 ha         1 9MV       0.151500
     54 C13         -1.9170    -3.1900    -0.0080 c3         1 9MV       0.158300
@<TRIPOS>BOND
     1    29    10 1
     2    30    10 ar
     3    30    31 ar
     4    10    28 ar
     5    31     3 ar
     6    11    12 1
     7    28     2 ar
     8     9    14 ar
     9     9     7 ar
    10     3     2 ar
    11     3    16 1
    12    14    15 ar
    13    12     7 1
    14    12    13 1
    15     7    33 ar
    16     2     1 1
    17    15    54 1
    18    15    32 ar
    19    54    16 1
    20    33    32 ar
    21    16    17 1
    22     1     5 1
    23     1    17 1
    24     1    21 1
    25     5     6 1
    26    17    18 2
    27    21    20 1
    28     6    19 1
    29    19    20 1
    30    19    22 1
    31    23    22 2
    32    24    22 2
    33    22     4 1
    34     4     8 2
    35     4    27 1
    36     8    25 1
    37    27    26 1
    38    25    26 2
    39     5    34 1
    40     5    35 1
    41    54    36 1
    42    54    37 1
    43     6    38 1
    44     6    39 1
    45     8    40 1
    46     9    41 1
    47    14    42 1
    48    20    43 1
    49    20    44 1
    50    21    45 1
    51    21    46 1
    52    25    47 1
    53    26    48 1
    54    28    49 1
    55    30    50 1
    56    31    51 1
    57    32    52 1
    58    33    53 1
@<TRIPOS>SUBSTRUCTURE
     1 9MV         1 TEMP              0 ****  ****    0 ROOT
