@<TRIPOS>MOLECULE
molecule
   79    82     1     0     0
SMALL
bcc


@<TRIPOS>ATOM
      1 C20          0.0000     0.0000     0.0000 c3         1 9MX       0.119000
      2 C27          1.5300     0.0000     0.0000 c3         1 9MX      -0.033700
      3 C32          2.0410     0.0000     1.4440 c3         1 9MX       0.106800
      4 C33          2.0420    -1.2510    -0.7180 c3         1 9MX      -0.082400
      5 N37          3.5050    -0.1320     1.4290 nh         1 9MX      -0.741600
      6 C38          3.5720    -1.2350    -0.7470 c3         1 9MX      -0.096400
      7 C40          4.1060    -1.2490     0.6880 c3         1 9MX       0.212800
      8 C41          4.2960     0.7760     2.0920 c2         1 9MX       0.682100
      9 N43          3.7500     1.6960     2.8360 n2         1 9MX      -0.798100
     10 N42          5.6640     0.7120     1.9720 nz         1 9MX      -0.803600
     11 N3          -4.3340     2.7560    -0.0940 n7         1 9MX      -0.873100
     12 C1          -3.8470     2.7610     1.2870 c3         1 9MX       0.231500
     13 C2          -4.3490     3.9940     1.9930 c          1 9MX       0.595100
     14 O6          -4.5440     5.0140     1.3660 o          1 9MX      -0.454100
     15 C4          -2.3160     2.7620     1.2880 c3         1 9MX      -0.289400
     16 C8          -1.8130     1.4740     0.6870 c          1 9MX       0.674100
     17 O15         -2.6020     0.6390     0.2970 o          1 9MX      -0.592100
     18 N14         -0.4880     1.2520     0.5840 ns         1 9MX      -0.615900
     19 O12         -5.9380     2.1460    -1.8670 o          1 9MX      -0.652800
     20 O13         -5.5880     0.6390     0.0950 o          1 9MX      -0.652800
     21 C18         -7.3840     2.3100     1.6160 ca         1 9MX       0.000000
     22 C11         -7.0480     2.7200     0.3630 ca         1 9MX      -0.296500
     23 C19         -7.7360     3.7600    -0.2610 ca         1 9MX      -0.027000
     24 C26         -8.7680     4.3920     0.3630 ca         1 9MX      -0.101000
     25 C35        -10.2090     4.6180     2.3300 ca         1 9MX      -0.116000
     26 C39        -10.5460     4.2070     3.5830 ca         1 9MX      -0.119000
     27 C36         -9.8550     3.1730     4.2100 ca         1 9MX      -0.145000
     28 C31         -8.8220     2.5410     3.5860 ca         1 9MX      -0.095000
     29 C25         -8.4460     2.9380     2.2920 ca         1 9MX      -0.043000
     30 C30         -9.1490     3.9910     1.6550 ca         1 9MX       0.029000
     31 N5          -4.5820     3.9630     3.3200 n          1 9MX      -0.480800
     32 C21         -5.1240     5.1400     4.0120 c3         1 9MX       0.056700
     33 C28         -6.3760     4.7240     4.7890 c3         1 9MX      -0.194400
     34 C10         -6.0300     3.5490     5.7150 c3         1 9MX      -0.058700
     35 C16         -5.5540     2.3580     4.8790 c3         1 9MX      -0.152400
     36 C9          -4.2950     2.7540     4.1030 c3         1 9MX       0.139000
     37 C17         -5.4860     6.1990     3.0020 c          1 9MX       0.894600
     38 O23         -6.1450     5.9080     2.0320 o          1 9MX      -0.813800
     39 O24         -5.0750     7.4650     3.1800 o          1 9MX      -0.813800
     40 C29         -4.9130     3.9680     6.6740 c3         1 9MX      -0.106100
     41 H20         -0.3610    -0.8370     0.5860 h1         1 9MX       0.072700
     42 H20A        -0.3610    -0.0890    -1.0170 h1         1 9MX       0.072700
     43 H27          1.8960     0.8830    -0.5110 hc         1 9MX       0.045700
     44 H32          2.2050     0.9000     0.8640 h1         1 9MX       0.118200
     45 H32A         1.4760     0.3390     2.3040 h1         1 9MX       0.118200
     46 H33          1.6640    -1.2630    -1.7330 hc         1 9MX       0.073700
     47 H33A         1.7010    -2.1330    -0.1910 hc         1 9MX       0.073700
     48 H38          3.9130    -0.3380    -1.2500 hc         1 9MX       0.061700
     49 H38A         3.9310    -2.1110    -1.2740 hc         1 9MX       0.061700
     50 H40          3.8390    -2.1850     1.1650 h1         1 9MX       0.044700
     51 H40A         5.1830    -1.1370     0.6750 h1         1 9MX       0.044700
     52 HN43         4.3250     2.3560     3.3200 hn         1 9MX       0.435400
     53 HN42         5.9200     0.8060     1.0090 hn         1 9MX       0.463800
     54 HN4A         6.0810     1.4530     2.5000 hn         1 9MX       0.463800
     55 HN3         -3.8450     3.2700    -0.7990 hn         1 9MX       0.465800
     56 H1          -4.2080     1.8790     1.8010 h1         1 9MX       0.063700
     57 H4          -2.8600     2.0460     1.8930 hc         1 9MX       0.114200
     58 H4A         -1.7340     3.2980     2.0280 hc         1 9MX       0.114200
     59 HN14         0.1610     1.9640     0.8540 hn         1 9MX       0.306500
     60 H19         -7.4460     4.0680    -1.2590 ha         1 9MX       0.143000
     61 H26         -9.2940     5.1980    -0.1340 ha         1 9MX       0.134000
     62 H35        -10.7560     5.4240     1.8560 ha         1 9MX       0.132000
     63 H39        -11.3640     4.6920     4.1020 ha         1 9MX       0.119000
     64 H36        -10.1440     2.8650     5.2070 ha         1 9MX       0.116000
     65 H31         -8.2940     1.7390     4.0860 ha         1 9MX       0.122000
     66 H21         -4.3830     5.5270     4.7020 h1         1 9MX       0.031700
     67 H28         -5.6170     5.2690     5.3380 hc         1 9MX       0.087200
     68 H28A        -7.2690     5.3280     4.8950 hc         1 9MX       0.087200
     69 H10         -6.9090     3.2650     6.2790 hc         1 9MX       0.037700
     70 H16         -5.9800     1.6030     5.5290 hc         1 9MX       0.058200
     71 H16A        -6.2580     2.3200     4.0560 hc         1 9MX       0.058200
     72 H9          -3.4900     2.9560     4.7990 h1         1 9MX       0.021200
     73 H9A         -4.0130     1.9490     3.4360 h1         1 9MX       0.021200
     74 H29         -4.6400     3.1260     7.2990 hc         1 9MX       0.031367
     75 H29A        -5.2590     4.7830     7.2970 hc         1 9MX       0.031367
     76 H29B        -4.0490     4.2900     6.1040 hc         1 9MX       0.031367
     77 H423         5.9910    -0.1630     2.3310 hn         1 9MX       0.463800
     78 S7          -5.7180     1.9310    -0.4800 sy         1 9MX       1.427200
     79 H18         -6.9190     1.4280     2.0400 ha         1 9MX       0.135000
@<TRIPOS>BOND
     1    15    12 1
     2    13    12 1
     3    12    11 1
     4    12    56 1
     5    31    13 1
     6    13    14 2
     7    11    78 1
     8    11    55 1
     9    15    16 1
    10    15    57 1
    11    15    58 1
    12    32    31 1
    13    36    31 1
    14    19    78 2
    15    78    22 1
    16    78    20 2
    17    18    16 1
    18    16    17 2
    19    35    36 1
    20    36    72 1
    21    36    73 1
    22    34    40 1
    23    34    33 1
    24    34    35 1
    25    34    69 1
    26    21    22 ar
    27    22    23 ar
    28     1    18 1
    29    18    59 1
    30    35    70 1
    31    35    71 1
    32    38    37 1
    33    39    37 1
    34    37    32 1
    35    21    29 ar
    36    21    79 1
    37    23    24 ar
    38    23    60 1
    39     1     2 1
    40     1    41 1
    41     1    42 1
    42    33    32 1
    43    32    66 1
    44    28    29 ar
    45    29    30 ar
    46    30    24 ar
    47    24    61 1
    48     4     2 1
    49     2     3 1
    50     2    43 1
    51    33    67 1
    52    33    68 1
    53    40    74 1
    54    40    75 1
    55    40    76 1
    56    30    25 ar
    57    28    27 ar
    58    28    65 1
    59     3     5 1
    60     3    44 1
    61     3    45 1
    62     4     6 1
    63     4    46 1
    64     4    47 1
    65    26    25 ar
    66    25    62 1
    67    27    26 ar
    68    27    64 1
    69     7     5 1
    70     5     8 1
    71     6     7 1
    72     6    48 1
    73     6    49 1
    74    26    63 1
    75     7    50 1
    76     7    51 1
    77     8     9 2
    78     8    10 1
    79    10    53 1
    80    10    54 1
    81     9    52 1
    82    77    10 1
@<TRIPOS>SUBSTRUCTURE
     1 9MX         1 TEMP              0 ****  ****    0 ROOT
