@<TRIPOS>MOLECULE
9MX
   79    82     1     0     0
SMALL
bcc


@<TRIPOS>ATOM
      1 C20          0.0000     0.0000     0.0000 c3         1 9MX       0.058000
      2 C27          1.5300     0.0000     0.0000 c3         1 9MX       0.009300
      3 C32          2.0410     0.0000     1.4440 c3         1 9MX       0.018800
      4 C33          2.0420    -1.2510    -0.7180 c3         1 9MX      -0.032400
      5 N37          3.5050    -0.1320     1.4290 nh         1 9MX      -0.409600
      6 C38          3.5720    -1.2350    -0.7470 c3         1 9MX      -0.034400
      7 C40          4.1060    -1.2490     0.6880 c3         1 9MX       0.159800
      8 C41          4.2960     0.7760     2.0920 c2         1 9MX       0.250100
      9 N43          3.7500     1.6960     2.8360 n2         1 9MX      -0.642100
     10 N42          5.6640     0.7120     1.9720 nz         1 9MX       0.190400
     11 N3          -4.3340     2.7560    -0.0940 n7         1 9MX      -0.532100
     12 C1          -3.8470     2.7610     1.2870 c3         1 9MX       0.193500
     13 C2          -4.3490     3.9940     1.9930 c          1 9MX       0.484100
     14 O6          -4.5440     5.0140     1.3660 o          1 9MX      -0.477100
     15 C4          -2.3160     2.7620     1.2880 c3         1 9MX      -0.280400
     16 C8          -1.8130     1.4740     0.6870 c          1 9MX       0.609100
     17 O15         -2.6020     0.6390     0.2970 o          1 9MX      -0.620100
     18 N14         -0.4880     1.2520     0.5840 ns         1 9MX      -0.254900
     19 O12         -5.9380     2.1460    -1.8670 o          1 9MX      -0.602800
     20 O13         -5.5880     0.6390     0.0950 o          1 9MX      -0.602800
     21 C18         -7.3840     2.3100     1.6160 ca         1 9MX       0.020000
     22 C11         -7.0480     2.7200     0.3630 ca         1 9MX      -0.135500
     23 C19         -7.7360     3.7600    -0.2610 ca         1 9MX       0.004000
     24 C26         -8.7680     4.3920     0.3630 ca         1 9MX      -0.077000
     25 C35        -10.2090     4.6180     2.3300 ca         1 9MX      -0.085000
     26 C39        -10.5460     4.2070     3.5830 ca         1 9MX      -0.096000
     27 C36         -9.8550     3.1730     4.2100 ca         1 9MX      -0.120000
     28 C31         -8.8220     2.5410     3.5860 ca         1 9MX      -0.073000
     29 C25         -8.4460     2.9380     2.2920 ca         1 9MX      -0.051000
     30 C30         -9.1490     3.9910     1.6550 ca         1 9MX       0.027000
     31 N5          -4.5820     3.9630     3.3200 n          1 9MX      -0.153800
     32 C21         -5.1240     5.1400     4.0120 c3         1 9MX      -0.015300
     33 C28         -6.3760     4.7240     4.7890 c3         1 9MX      -0.192400
     34 C10         -6.0300     3.5490     5.7150 c3         1 9MX      -0.020700
     35 C16         -5.5540     2.3580     4.8790 c3         1 9MX      -0.125400
     36 C9          -4.2950     2.7540     4.1030 c3         1 9MX       0.089000
     37 C17         -5.4860     6.1990     3.0020 c          1 9MX       0.974600
     38 O23         -6.1450     5.9080     2.0320 o          1 9MX      -0.858800
     39 O24         -5.0750     7.4650     3.1800 o          1 9MX      -0.858800
     40 C29         -4.9130     3.9680     6.6740 c3         1 9MX      -0.028100
     41 H20         -0.3610    -0.8370     0.5860 h1         1 9MX       0.044700
     42 H20A        -0.3610    -0.0890    -1.0170 h1         1 9MX       0.044700
     43 H27          1.8960     0.8830    -0.5110 hc         1 9MX       0.024700
     44 H32          2.2050     0.9000     0.8650 h1         1 9MX       0.076700
     45 H32A         1.4760     0.3380     2.3050 h1         1 9MX       0.076700
     46 H33          1.6640    -1.2630    -1.7330 hc         1 9MX       0.045200
     47 H33A         1.7010    -2.1330    -0.1910 hc         1 9MX       0.045200
     48 H38          3.9130    -0.3390    -1.2500 hc         1 9MX       0.031200
     49 H38A         3.9310    -2.1110    -1.2740 hc         1 9MX       0.031200
     50 H40          5.1830    -1.1370     0.6750 h1         1 9MX       0.017200
     51 H40A         3.8390    -2.1850     1.1650 h1         1 9MX       0.017200
     52 HN43         2.7540     1.7430     2.9250 hn         1 9MX       0.384400
     53 HN42         6.0810     1.4500     2.5050 hn         1 9MX       0.223467
     54 HN4A         5.9890    -0.1700     2.3140 hn         1 9MX       0.223467
     55 HN3         -3.8430     3.2690    -0.8000 hn         1 9MX       0.357800
     56 H1          -4.2080     1.8790     1.8010 h1         1 9MX       0.046700
     57 H4          -2.8600     2.0460     1.8930 hc         1 9MX       0.090700
     58 H4A         -1.7340     3.2980     2.0280 hc         1 9MX       0.090700
     59 HN14         0.1620     1.9620     0.8600 hn         1 9MX       0.164500
     60 H19         -7.4460     4.0680    -1.2590 ha         1 9MX       0.116000
     61 H26         -9.2940     5.1980    -0.1340 ha         1 9MX       0.106000
     62 H35        -10.7560     5.4240     1.8560 ha         1 9MX       0.104000
     63 H39        -11.3640     4.6920     4.1020 ha         1 9MX       0.092000
     64 H36        -10.1440     2.8650     5.2070 ha         1 9MX       0.091000
     65 H31         -8.2940     1.7390     4.0860 ha         1 9MX       0.099000
     66 H21         -4.3830     5.5270     4.7020 h1         1 9MX       0.017700
     67 H28         -5.6180     5.2690     5.3380 hc         1 9MX       0.073700
     68 H28A        -7.2690     5.3280     4.8950 hc         1 9MX       0.073700
     69 H10         -6.9090     3.2650     6.2790 hc         1 9MX       0.015700
     70 H16         -5.9800     1.6030     5.5290 hc         1 9MX       0.041200
     71 H16A        -6.2580     2.3200     4.0560 hc         1 9MX       0.041200
     72 H9          -4.0130     1.9490     3.4360 h1         1 9MX      -0.001800
     73 H9A         -3.4900     2.9560     4.7990 h1         1 9MX      -0.001800
     74 H29         -4.0750     4.3550     6.1060 hc         1 9MX       0.006033
     75 H29A        -4.5920     3.1090     7.2510 hc         1 9MX       0.006033
     76 H29B        -5.2810     4.7350     7.3440 hc         1 9MX       0.006033
     77 H423         5.9200     0.8070     1.0090 hn         1 9MX       0.223467
     78 S7          -5.7180     1.9310    -0.4800 sy         1 9MX       1.033200
     79 H18         -6.9200     1.4280     2.0400 ha         1 9MX       0.112000
@<TRIPOS>BOND
     1     1     2 1   
     2     1    18 1   
     3     1    41 1   
     4     1    42 1   
     5     2     3 1   
     6     2     4 1   
     7     2    43 1   
     8     3     5 1   
     9     3    44 1   
    10     3    45 1   
    11     4     6 1   
    12     4    46 1   
    13     4    47 1   
    14     5     7 1   
    15     5     8 1   
    16     6     7 1   
    17     6    48 1   
    18     6    49 1   
    19     7    50 1   
    20     7    51 1   
    21     8     9 2   
    22     8    10 1   
    23     9    52 1   
    24    10    53 1   
    25    10    54 1   
    26    10    77 1   
    27    11    12 1   
    28    11    55 1   
    29    11    78 1   
    30    12    13 1   
    31    12    15 1   
    32    12    56 1   
    33    13    14 2   
    34    13    31 1   
    35    15    16 1   
    36    15    57 1   
    37    15    58 1   
    38    16    17 2   
    39    16    18 1   
    40    18    59 1   
    41    19    78 2   
    42    20    78 2   
    43    21    22 ar  
    44    21    29 ar  
    45    21    79 1   
    46    22    23 ar  
    47    22    78 1   
    48    23    24 ar  
    49    23    60 1   
    50    24    30 ar  
    51    24    61 1   
    52    25    26 ar  
    53    25    30 ar  
    54    25    62 1   
    55    26    27 ar  
    56    26    63 1   
    57    27    28 ar  
    58    27    64 1   
    59    28    29 ar  
    60    28    65 1   
    61    29    30 ar  
    62    31    32 1   
    63    31    36 1   
    64    32    33 1   
    65    32    37 1   
    66    32    66 1   
    67    33    34 1   
    68    33    67 1   
    69    33    68 1   
    70    34    35 1   
    71    34    40 1   
    72    34    69 1   
    73    35    36 1   
    74    35    70 1   
    75    35    71 1   
    76    36    72 1   
    77    36    73 1   
    78    37    38 1   
    79    37    39 1   
    80    40    74 1   
    81    40    75 1   
    82    40    76 1   
@<TRIPOS>SUBSTRUCTURE
     1 9MX         1 TEMP              0 ****  ****    0 ROOT
