@<TRIPOS>MOLECULE
molecule
   72    76     1     0     0
SMALL
bcc


@<TRIPOS>ATOM
      1 N1           0.0000     0.0000     0.0000 na         1 9MY      -0.135300
      2 N3           0.6290     0.0000     2.0890 nc         1 9MY      -0.563100
      3 C4           1.3820     0.0000     0.0000 ca         1 9MY      -0.056200
      4 C5           1.7690     0.0000     1.3510 ca         1 9MY       0.096400
      5 C6          -0.5930    -1.2310    -2.0050 c          1 9MY       0.641100
      6 C7          -0.8680    -0.0000    -1.1800 c3         1 9MY      -0.015000
      7 C8           2.3470     0.0000    -0.9980 ca         1 9MY      -0.124000
      8 C10          3.1270     0.0040     1.6790 ca         1 9MY      -0.093000
      9 C13          4.0730     0.0030     0.6760 ca         1 9MY       0.082900
     10 C15         -2.2050    -1.3790     2.2630 ca         1 9MY      -0.123300
     11 C17         -1.2660    -2.8790    -3.6690 c3         1 9MY       0.112700
     12 C21         -2.3310    -5.2800    -4.9680 c3         1 9MY       0.145100
     13 C22         -1.9640    -2.8090    -5.0290 c3         1 9MY      -0.094900
     14 C24         -1.7470    -4.1230    -5.7820 c3         1 9MY      -0.087900
     15 C28         -2.8160    -2.2870     1.4200 ca         1 9MY      -0.099000
     16 O20         -2.0080     0.9490     2.8050 os         1 9MY      -0.394600
     17 C9          -1.8410    -0.0070     1.7550 c3         1 9MY       0.198100
     18 C2          -0.4040    -0.0060     1.3000 cd         1 9MY       0.431800
     19 F19          5.3860     0.0070     0.9930 f          1 9MY      -0.130900
     20 C12          3.6850     0.0000    -0.6600 ca         1 9MY       0.108900
     21 F18          4.6230    -0.0020    -1.6320 f          1 9MY      -0.128900
     22 C16         -0.5890     1.2480    -2.0180 c3         1 9MY      -0.082700
     23 C29         -1.5860     1.3160    -3.1770 c3         1 9MY      -0.083400
     24 C35         -1.3080     2.5660    -4.0160 c3         1 9MY      -0.076400
     25 C37         -1.4570     3.8120    -3.1410 c3         1 9MY      -0.082400
     26 C34         -0.4610     3.7440    -1.9810 c3         1 9MY      -0.076400
     27 C30         -0.7400     2.4940    -1.1430 c3         1 9MY      -0.083400
     28 N11         -1.4730    -1.6200    -2.9480 ns         1 9MY      -0.583900
     29 O26         -2.1300    -6.5080    -5.6710 oh         1 9MY      -0.601800
     30 C25         -1.6340    -5.3500    -3.6080 c3         1 9MY      -0.087900
     31 C23         -1.8500    -4.0360    -2.8550 c3         1 9MY      -0.094900
     32 C27         -1.9320    -1.7260     3.5730 ca         1 9MY      -0.099000
     33 C33         -2.2710    -2.9820     4.0410 ca         1 9MY      -0.131500
     34 C36         -2.8830    -3.8910     3.1980 ca         1 9MY      -0.117000
     35 C32         -3.1560    -3.5440     1.8870 ca         1 9MY      -0.131500
     36 H1          -1.9050    -0.0000    -0.8650 h1         1 9MY       0.078700
     37 H2           2.0500    -0.0020    -2.0400 ha         1 9MY       0.153000
     38 H3           3.4350    -0.0880     2.7140 ha         1 9MY       0.163000
     39 H4          -0.2060    -3.0450    -3.8180 h1         1 9MY       0.090700
     40 H6          -3.0250    -2.6510    -4.8810 hc         1 9MY       0.048450
     41 H7          -1.5480    -1.9920    -5.6050 hc         1 9MY       0.048450
     42 H8          -2.2430    -4.0730    -6.7430 hc         1 9MY       0.058200
     43 H9          -0.6850    -4.2850    -5.9260 hc         1 9MY       0.058200
     44 H10         -3.0300    -2.0150     0.3940 ha         1 9MY       0.137000
     45 H11         -3.5360     2.0070     1.9140 h1         1 9MY       0.034700
     46 H12         -4.0440     0.7540     3.0550 h1         1 9MY       0.034700
     47 H13         -3.3470     2.2650     3.6540 h1         1 9MY       0.034700
     48 H14         -2.4840     0.2530     0.9230 h1         1 9MY       0.041700
     49 H15          0.4190     1.2060    -2.4130 hc         1 9MY       0.076700
     50 H16         -2.5940     1.3650    -2.7830 hc         1 9MY       0.046950
     51 H17         -1.4770     0.4350    -3.7980 hc         1 9MY       0.046950
     52 H18         -2.0160     2.6150    -4.8350 hc         1 9MY       0.047700
     53 H19         -0.2980     2.5200    -4.4070 hc         1 9MY       0.047700
     54 H20         -2.4650     3.8560    -2.7470 hc         1 9MY       0.043700
     55 H21         -1.2570     4.6950    -3.7350 hc         1 9MY       0.043700
     56 H22          0.5470     3.6960    -2.3750 hc         1 9MY       0.047700
     57 H23         -0.5700     4.6250    -1.3600 hc         1 9MY       0.047700
     58 H24         -1.7490     2.5400    -0.7530 hc         1 9MY       0.046950
     59 H25         -0.0320     2.4450    -0.3240 hc         1 9MY       0.046950
     60 H26         -2.2980    -1.0790    -3.1160 hn         1 9MY       0.314500
     61 H27         -2.9640    -6.9120    -5.8430 ho         1 9MY       0.401000
     62 H28         -2.0500    -6.1670    -3.0310 hc         1 9MY       0.058200
     63 H29         -0.5720    -5.5100    -3.7550 hc         1 9MY       0.058200
     64 H30         -1.3540    -4.0860    -1.8940 hc         1 9MY       0.048450
     65 H31         -2.9120    -3.8740    -2.7110 hc         1 9MY       0.048450
     66 H32         -1.4520    -1.0140     4.2340 ha         1 9MY       0.137000
     67 H33         -2.0570    -3.2540     5.0670 ha         1 9MY       0.132000
     68 H34         -3.1490    -4.8760     3.5640 ha         1 9MY       0.130000
     69 H35         -3.6360    -4.2550     1.2260 ha         1 9MY       0.132000
     70 O14          0.4200    -1.8710    -1.8210 o          1 9MY      -0.577100
     71 C31         -3.3130     1.5290     2.8600 c3         1 9MY       0.124700
     72 H5          -3.3910    -5.1140    -4.8190 h1         1 9MY       0.027700
@<TRIPOS>BOND
     1    29    12 1
     2    71    16 1
     3    12    14 1
     4    12    30 1
     5    14    13 1
     6    13    11 1
     7    30    31 1
     8     2     4 1
     9     2    18 2
    10    16    17 1
    11    31    11 1
    12    17    18 1
    13    17    10 1
    14     8     4 ar
    15     8     9 ar
    16     4     3 ar
    17    18     1 1
    18    11    28 1
    19    19     9 1
    20     9    20 ar
    21    28     5 1
    22    10    15 ar
    23    10    32 ar
    24     3     1 1
    25     3     7 ar
    26     1     6 1
    27    15    35 ar
    28    32    33 ar
    29    20     7 ar
    30    20    21 1
    31     5     6 1
    32     5    70 2
    33     6    22 1
    34    35    34 ar
    35    33    34 ar
    36    22    23 1
    37    22    27 1
    38    23    24 1
    39    27    26 1
    40    24    25 1
    41    26    25 1
    42     6    36 1
    43     7    37 1
    44     8    38 1
    45    11    39 1
    46    12    72 1
    47    13    40 1
    48    13    41 1
    49    14    42 1
    50    14    43 1
    51    15    44 1
    52    71    45 1
    53    71    46 1
    54    71    47 1
    55    17    48 1
    56    22    49 1
    57    23    50 1
    58    23    51 1
    59    24    52 1
    60    24    53 1
    61    25    54 1
    62    25    55 1
    63    26    56 1
    64    26    57 1
    65    27    58 1
    66    27    59 1
    67    28    60 1
    68    29    61 1
    69    30    62 1
    70    30    63 1
    71    31    64 1
    72    31    65 1
    73    32    66 1
    74    33    67 1
    75    34    68 1
    76    35    69 1
@<TRIPOS>SUBSTRUCTURE
     1 9MY         1 TEMP              0 ****  ****    0 ROOT
