@<TRIPOS>MOLECULE
molecule
   45    47     1     0     0
SMALL
bcc


@<TRIPOS>ATOM
      1 C2           0.0000     0.0000     0.0000 ca         1 9MZ      -0.212000
      2 C4           2.0830     0.0000     1.1950 ca         1 9MZ      -0.164000
      3 C5           1.4060     0.0020     2.3960 ca         1 9MZ      -0.077000
      4 C6           0.0090    -0.0040     2.4100 ca         1 9MZ      -0.165900
      5 F28        -12.9240     2.3900    11.1020 f          1 9MZ      -0.223633
      6 F30        -12.3450     4.3980    10.1790 f          1 9MZ      -0.223633
      7 F29        -11.8400     3.9570    12.3640 f          1 9MZ      -0.223633
      8 C25        -10.6340     2.8260    10.6610 ca         1 9MZ      -0.163300
      9 C26        -10.2910     2.7930     9.3240 ca         1 9MZ      -0.116000
     10 C24         -9.7580     2.3350    11.6140 ca         1 9MZ      -0.098000
     11 C23         -8.5400     1.8060    11.2290 ca         1 9MZ      -0.116000
     12 C22         -8.1930     1.7640     9.8930 ca         1 9MZ      -0.101000
     13 C21         -9.0670     2.2610     8.9350 ca         1 9MZ       0.053600
     14 N18         -8.7170     2.2260     7.5810 ns         1 9MZ      -0.475100
     15 C17         -7.9660     1.2130     7.1050 c          1 9MZ       0.657100
     16 O19         -7.6750     0.2830     7.8280 o          1 9MZ      -0.589100
     17 C16         -7.4900     1.2350     5.6760 c3         1 9MZ      -0.131400
     18 C13         -6.6640    -0.0230     5.3940 c3         1 9MZ      -0.094600
     19 C14         -6.1610    -0.0250     3.9660 c          1 9MZ       0.736500
     20 O20         -6.8990    -0.0340     3.0000 o          1 9MZ      -0.519100
     21 N15         -4.8600    -0.0200     3.8670 ne         1 9MZ      -0.762100
     22 C11         -4.0760    -0.0120     4.9230 c2         1 9MZ       0.801100
     23 S12         -5.1150    -0.0100     6.3610 ss         1 9MZ      -0.290300
     24 N10         -2.7110    -0.0050     4.9150 nu         1 9MZ      -0.515300
     25 N9          -2.0180    -0.0070     3.6980 n2         1 9MZ      -0.336400
     26 C8          -0.7200    -0.0020     3.6910 ce         1 9MZ       0.404800
     27 C3           1.3830     0.0000     0.0000 ca         1 9MZ      -0.077000
     28 C1          -0.6950     0.0010     1.1970 ca         1 9MZ       0.168100
     29 O1          -2.0530     0.0070     1.1980 oh         1 9MZ      -0.463100
     30 H2          -0.5400     0.0020    -0.9390 ha         1 9MZ       0.141000
     31 H4           3.1660     0.0020     1.1860 ha         1 9MZ       0.136000
     32 H5           1.9570     0.0020     3.3290 ha         1 9MZ       0.134000
     33 H26        -10.9750     3.1810     8.5790 ha         1 9MZ       0.147000
     34 H24        -10.0270     2.3670    12.6630 ha         1 9MZ       0.147000
     35 H23         -7.8570     1.4200    11.9770 ha         1 9MZ       0.144000
     36 H22         -7.2390     1.3490     9.5930 ha         1 9MZ       0.166000
     37 H1          -9.0130     2.9600     6.9680 hn         1 9MZ       0.330500
     38 H161        -8.3450     1.2630     5.0110 hc         1 9MZ       0.086200
     39 H162        -6.8770     2.1140     5.5120 hc         1 9MZ       0.086200
     40 H13         -7.2360    -0.9200     5.5990 h1         1 9MZ       0.131700
     41 H9          -2.2060    -0.0190     5.7790 hn         1 9MZ       0.443800
     42 H8          -0.1730     0.0040     4.6260 h4         1 9MZ      -0.012200
     43 H3           1.9220    -0.0010    -0.9400 ha         1 9MZ       0.135000
     44 HO1         -2.3710    -0.5460     0.5040 ho         1 9MZ       0.425000
     45 C27        -11.9590     3.4030    11.0850 c3         1 9MZ       0.675200
@<TRIPOS>BOND
     1     6    45 1
     2     5    45 1
     3    45     7 1
     4    45     8 1
     5    16    15 2
     6     8     9 ar
     7     8    10 ar
     8     9    13 ar
     9    10    11 ar
    10    15    14 1
    11    15    17 1
    12     2    27 ar
    13     2     3 ar
    14    13    14 1
    15    13    12 ar
    16    11    12 ar
    17    27     1 ar
    18    17    18 1
    19     3     4 ar
    20     1    28 ar
    21    18    23 1
    22    18    19 1
    23     4    28 ar
    24     4    26 1
    25    28    29 1
    26    23    22 1
    27    20    19 2
    28    19    21 1
    29    25    26 2
    30    25    24 1
    31    22    21 2
    32    22    24 1
    33     1    30 1
    34     2    31 1
    35     3    32 1
    36     9    33 1
    37    10    34 1
    38    11    35 1
    39    12    36 1
    40    14    37 1
    41    17    38 1
    42    17    39 1
    43    18    40 1
    44    24    41 1
    45    26    42 1
    46    27    43 1
    47    29    44 1
@<TRIPOS>SUBSTRUCTURE
     1 9MZ         1 TEMP              0 ****  ****    0 ROOT
