@<TRIPOS>MOLECULE
9MZ
   45    48     1     0     0
SMALL
bcc


@<TRIPOS>ATOM
      1 C2           0.0000     0.0000     0.0000 c2         1 9MZ      -0.208000
      2 C4           2.0830     0.0000     1.1950 c2         1 9MZ      -0.160000
      3 C5           1.4060     0.0020     2.3960 c2         1 9MZ       0.016000
      4 C6           0.0090    -0.0040     2.4100 c3         1 9MZ      -0.166000
      5 F28        -12.9240     2.3900    11.1020 f          1 9MZ      -0.136667
      6 F30        -12.3450     4.3980    10.1790 f          1 9MZ      -0.136667
      7 F29        -11.8400     3.9570    12.3640 f          1 9MZ      -0.136667
      8 C25        -10.6340     2.8260    10.6610 ca         1 9MZ      -0.186000
      9 C26        -10.2910     2.7930     9.3240 ca         1 9MZ      -0.074000
     10 C24         -9.7580     2.3350    11.6140 ca         1 9MZ      -0.055000
     11 C23         -8.5400     1.8060    11.2290 ca         1 9MZ      -0.086000
     12 C22         -8.1930     1.7640     9.8930 ca         1 9MZ      -0.069000
     13 C21         -9.0670     2.2610     8.9350 ca         1 9MZ      -0.089000
     14 N18         -8.7170     2.2260     7.5810 ns         1 9MZ       0.118000
     15 C17         -7.9660     1.2130     7.1050 c2         1 9MZ       0.200000
     16 O19         -7.6750     0.2830     7.8280 o          1 9MZ      -0.386000
     17 C16         -7.4900     1.2350     5.6760 c3         1 9MZ      -0.098000
     18 C13         -6.6640    -0.0230     5.3940 c3         1 9MZ      -0.205000
     19 C14         -6.1610    -0.0250     3.9660 c2         1 9MZ       0.291000
     20 O20         -6.8990    -0.0340     3.0000 o          1 9MZ      -0.312000
     21 N15         -4.8600    -0.0200     3.8670 n2         1 9MZ      -0.232000
     22 C11         -4.0760    -0.0120     4.9230 c2         1 9MZ      -0.090000
     23 S12         -5.1150    -0.0100     6.3610 ss         1 9MZ       0.079000
     24 N10         -2.7110    -0.0050     4.9150 n7         1 9MZ       0.247000
     25 N9          -2.0180    -0.0070     3.6980 n2         1 9MZ       0.004000
     26 C8          -0.7200    -0.0020     3.6910 c2         1 9MZ      -0.454000
     27 C3           1.3830     0.0000     0.0000 c2         1 9MZ      -0.015000
     28 C1          -0.6950     0.0010     1.1970 c2         1 9MZ       0.119000
     29 O1          -2.0530     0.0070     1.1980 oh         1 9MZ      -0.203000
     30 H2          -0.5400     0.0020    -0.9390 ha         1 9MZ       0.120000
     31 H4           3.1660     0.0020     1.1860 ha         1 9MZ       0.115000
     32 H5           1.9570     0.0020     3.3290 ha         1 9MZ       0.123000
     33 H26        -10.9750     3.1810     8.5790 ha         1 9MZ       0.120000
     34 H24        -10.0270     2.3670    12.6630 ha         1 9MZ       0.119000
     35 H23         -7.8570     1.4200    11.9770 ha         1 9MZ       0.113000
     36 H22         -7.2390     1.3490     9.5930 ha         1 9MZ       0.144000
     37 H1          -9.0050     2.9650     6.9700 hn         1 9MZ       0.085000
     38 H161        -8.3450     1.2630     5.0110 hc         1 9MZ       0.088500
     39 H162        -6.8770     2.1140     5.5120 hc         1 9MZ       0.088500
     40 H13         -7.2360    -0.9200     5.5990 h1         1 9MZ       0.145000
     41 H9          -2.2060    -0.0200     5.7790 hn         1 9MZ       0.089000
     42 H8          -0.5800     0.8710     3.0650 DU         1 9MZ       0.337000
     43 H3           1.9220    -0.0010    -0.9400 ha         1 9MZ       0.105000
     44 HO1         -2.3710    -0.5480     0.5050 ho         1 9MZ       0.216000
     45 C27        -11.9590     3.4030    11.0850 c3         1 9MZ       0.420000
@<TRIPOS>BOND
     1     1    27 1   
     2     1    28 1   
     3     1    30 1   
     4     2     3 1   
     5     2    27 1   
     6     2    31 1   
     7     3     4 1   
     8     3    32 1   
     9     4    26 1   
    10     4    28 1   
    11     4    42 1   
    12     5    45 1   
    13     6    45 1   
    14     7    45 1   
    15     8     9 1   
    16     8    10 1   
    17     8    45 1   
    18     9    13 1   
    19     9    33 1   
    20    10    11 1   
    21    10    34 1   
    22    11    12 1   
    23    11    35 1   
    24    12    13 1   
    25    12    36 1   
    26    13    14 1   
    27    14    15 1   
    28    14    37 1   
    29    15    16 1   
    30    15    17 1   
    31    17    18 1   
    32    17    38 1   
    33    17    39 1   
    34    18    19 1   
    35    18    23 1   
    36    18    40 1   
    37    19    20 1   
    38    19    21 1   
    39    21    22 1   
    40    22    23 1   
    41    22    24 1   
    42    24    25 1   
    43    24    41 1   
    44    25    26 1   
    45    26    42 1   
    46    27    43 1   
    47    28    29 1   
    48    29    44 1   
@<TRIPOS>SUBSTRUCTURE
     1 9MZ         1 TEMP              0 ****  ****    0 ROOT
