@<TRIPOS>MOLECULE
9N1
   72    76     1     0     0
SMALL
bcc


@<TRIPOS>ATOM
      1 N3           0.0000     0.0000     0.0000 nc         1 9N1      -0.496100
      2 C4          -1.8630     0.0000    -1.6300 ca         1 9N1      -0.179900
      3 C5           1.2370    -1.2190    -4.1080 c          1 9N1       0.564100
      4 C6           0.5420     0.0040    -3.5670 c3         1 9N1      -0.137000
      5 C7           1.7720     0.0020    -1.3420 ca         1 9N1      -0.252200
      6 C8           1.3550     0.0000     0.0000 ca         1 9N1       0.060400
      7 C15         -4.5370    -0.0010    -2.3730 ca         1 9N1       0.206100
      8 C21          2.3160     0.0000     1.0180 ca         1 9N1      -0.046000
      9 C22          0.6070     2.5000    -3.4610 c3         1 9N1      -0.031400
     10 C26          0.2540    -4.4150    -5.6350 c3         1 9N1      -0.039900
     11 C28          4.0550     0.0030    -0.6260 ca         1 9N1      -0.096000
     12 N10          0.5250    -2.3300    -4.3880 ns         1 9N1      -0.187900
     13 C18          1.2120    -3.5520    -4.8110 c3         1 9N1       0.014700
     14 C27          1.6700    -4.3340    -3.5780 c3         1 9N1      -0.039900
     15 C33          2.3870    -5.6110    -4.0210 c3         1 9N1      -0.017400
     16 C34          1.4290    -6.4740    -4.8440 c3         1 9N1      -0.028400
     17 C32          0.9710    -5.6920    -6.0780 c3         1 9N1      -0.017400
     18 C14          1.2260     1.2600    -4.1110 c3         1 9N1      -0.059700
     19 C23          1.0330     1.3300    -5.6280 c3         1 9N1      -0.031400
     20 C30          1.7160     2.5850    -6.1720 c3         1 9N1      -0.019400
     21 C35          1.0980     3.8250    -5.5220 c3         1 9N1      -0.027400
     22 C31          1.2900     3.7560    -4.0060 c3         1 9N1      -0.019400
     23 N2           0.6180     0.0020    -2.1040 na         1 9N1       0.318700
     24 C19          3.1260     0.0030    -1.6450 ca         1 9N1      -0.091000
     25 C29          3.6440     0.0010     0.6990 ca         1 9N1      -0.120000
     26 C1          -0.4400     0.0000    -1.2350 cd         1 9N1       0.287400
     27 C11         -2.3280    -0.9170    -2.5750 ca         1 9N1      -0.029000
     28 C16         -3.6550    -0.9140    -2.9410 ca         1 9N1      -0.258000
     29 O20         -5.8440    -0.0050    -2.7390 os         1 9N1      -0.304900
     30 C25         -6.2440    -0.9730    -3.7100 c3         1 9N1       0.244700
     31 C12         -4.0850     0.9110    -1.4290 ca         1 9N1      -0.259000
     32 C9          -2.7540     0.9170    -1.0540 ca         1 9N1       0.230100
     33 O17         -2.3100     1.8090    -0.1310 os         1 9N1      -0.275900
     34 H1          -0.4960    -0.0040    -3.8750 h1         1 9N1       0.062700
     35 H2           2.0060    -0.0020     2.0560 ha         1 9N1       0.108000
     36 H3           0.7470     2.4510    -2.3880 hc         1 9N1       0.021200
     37 H4          -0.4510     2.5370    -3.6920 hc         1 9N1       0.021200
     38 H5          -4.0470     2.1520     0.9220 h1         1 9N1       0.000033
     39 H6          -2.7870     3.3780     1.1160 h1         1 9N1       0.000033
     40 H7          -3.7150     3.2940    -0.3880 h1         1 9N1       0.000033
     41 H9          -0.0680    -3.8610    -6.5090 hc         1 9N1       0.020950
     42 H10          5.1130     0.0040    -0.8620 ha         1 9N1       0.103000
     43 H11         -0.4740    -2.3080    -4.3410 hn         1 9N1       0.176500
     44 H12          2.0740    -3.2970    -5.4150 h1         1 9N1       0.061700
     45 H13          2.3500    -3.7230    -2.9970 hc         1 9N1       0.020950
     46 H14          0.8080    -4.5950    -2.9760 hc         1 9N1       0.020950
     47 H15          3.2470    -5.3500    -4.6260 hc         1 9N1       0.017450
     48 H16          2.7090    -6.1640    -3.1470 hc         1 9N1       0.017450
     49 H17          0.5680    -6.7310    -4.2400 hc         1 9N1       0.015200
     50 H18          1.9390    -7.3760    -5.1590 hc         1 9N1       0.015200
     51 H19          1.8330    -5.4310    -6.6790 hc         1 9N1       0.017450
     52 H20          0.2910    -6.3030    -6.6590 hc         1 9N1       0.017450
     53 H21          2.2840     1.2270    -3.8850 hc         1 9N1       0.068700
     54 H22          1.4730     0.4530    -6.0870 hc         1 9N1       0.021200
     55 H23         -0.0260     1.3690    -5.8540 hc         1 9N1       0.021200
     56 H24          2.7740     2.5480    -5.9410 hc         1 9N1       0.016450
     57 H25          1.5770     2.6340    -7.2450 hc         1 9N1       0.016450
     58 H26          1.5850     4.7130    -5.9070 hc         1 9N1       0.013200
     59 H27          0.0390     3.8600    -5.7490 hc         1 9N1       0.013200
     60 H28          2.3490     3.7170    -3.7790 hc         1 9N1       0.016450
     61 H29          0.8490     4.6330    -3.5470 hc         1 9N1       0.016450
     62 H30          3.4520     0.0050    -2.6780 ha         1 9N1       0.135000
     63 H31          4.3850     0.0010     1.4890 ha         1 9N1       0.101000
     64 H32         -1.6450    -1.6300    -3.0190 ha         1 9N1       0.097000
     65 H33         -4.0140    -1.6270    -3.6740 ha         1 9N1       0.123000
     66 H34         -6.0450    -1.9680    -3.3320 h1         1 9N1      -0.001300
     67 H35         -5.6860    -0.8170    -4.6260 h1         1 9N1      -0.001300
     68 H36         -7.3030    -0.8680    -3.9110 h1         1 9N1      -0.001300
     69 H37         -4.7750     1.6200    -0.9870 ha         1 9N1       0.139000
     70 O13          2.4350    -1.2040    -4.2920 o          1 9N1      -0.628100
     71 H8          -0.6060    -4.6760    -5.0300 hc         1 9N1       0.020950
     72 C24         -3.2730     2.7130     0.4130 c3         1 9N1       0.237700
@<TRIPOS>BOND
     1     1     6 1   
     2     1    26 2   
     3     2    26 1   
     4     2    27 ar  
     5     2    32 ar  
     6     3     4 1   
     7     3    12 1   
     8     3    70 2   
     9     4    18 1   
    10     4    23 1   
    11     4    34 1   
    12     5     6 ar  
    13     5    23 1   
    14     5    24 ar  
    15     6     8 ar  
    16     7    28 ar  
    17     7    29 1   
    18     7    31 ar  
    19     8    25 ar  
    20     8    35 1   
    21     9    18 1   
    22     9    22 1   
    23     9    36 1   
    24     9    37 1   
    25    10    13 1   
    26    10    17 1   
    27    10    41 1   
    28    10    71 1   
    29    11    24 ar  
    30    11    25 ar  
    31    11    42 1   
    32    12    13 1   
    33    12    43 1   
    34    13    14 1   
    35    13    44 1   
    36    14    15 1   
    37    14    45 1   
    38    14    46 1   
    39    15    16 1   
    40    15    47 1   
    41    15    48 1   
    42    16    17 1   
    43    16    49 1   
    44    16    50 1   
    45    17    51 1   
    46    17    52 1   
    47    18    19 1   
    48    18    53 1   
    49    19    20 1   
    50    19    54 1   
    51    19    55 1   
    52    20    21 1   
    53    20    56 1   
    54    20    57 1   
    55    21    22 1   
    56    21    58 1   
    57    21    59 1   
    58    22    60 1   
    59    22    61 1   
    60    23    26 1   
    61    24    62 1   
    62    25    63 1   
    63    27    28 ar  
    64    27    64 1   
    65    28    65 1   
    66    29    30 1   
    67    30    66 1   
    68    30    67 1   
    69    30    68 1   
    70    31    32 ar  
    71    31    69 1   
    72    32    33 1   
    73    33    72 1   
    74    38    72 1   
    75    39    72 1   
    76    40    72 1   
@<TRIPOS>SUBSTRUCTURE
     1 9N1         1 TEMP              0 ****  ****    0 ROOT
