@<TRIPOS>MOLECULE
molecule
   72    76     1     0     0
SMALL
bcc


@<TRIPOS>ATOM
      1 N3           0.0000     0.0000     0.0000 nc         1 9N1      -0.574100
      2 C4          -1.8630     0.0000    -1.6300 ca         1 9N1      -0.172900
      3 C5           1.2370    -1.2190    -4.1080 c          1 9N1       0.650100
      4 C6           0.5420     0.0040    -3.5670 c3         1 9N1      -0.011000
      5 C7           1.7720     0.0020    -1.3420 ca         1 9N1      -0.086200
      6 C8           1.3550     0.0000     0.0000 ca         1 9N1       0.089400
      7 C15         -4.5370    -0.0010    -2.3730 ca         1 9N1       0.194100
      8 C21          2.3160     0.0000     1.0180 ca         1 9N1      -0.077000
      9 C22          0.6070     2.5000    -3.4610 c3         1 9N1      -0.077900
     10 C26          0.2540    -4.4150    -5.6350 c3         1 9N1      -0.093400
     11 C28          4.0550     0.0030    -0.6260 ca         1 9N1      -0.122000
     12 N10          0.5250    -2.3300    -4.3880 ns         1 9N1      -0.577900
     13 C18          1.2120    -3.5520    -4.8110 c3         1 9N1       0.114700
     14 C27          1.6700    -4.3340    -3.5780 c3         1 9N1      -0.093400
     15 C33          2.3870    -5.6110    -4.0210 c3         1 9N1      -0.076900
     16 C34          1.4290    -6.4740    -4.8440 c3         1 9N1      -0.083400
     17 C32          0.9710    -5.6920    -6.0780 c3         1 9N1      -0.076900
     18 C14          1.2260     1.2600    -4.1110 c3         1 9N1      -0.073700
     19 C23          1.0330     1.3300    -5.6280 c3         1 9N1      -0.077900
     20 C30          1.7160     2.5850    -6.1720 c3         1 9N1      -0.075400
     21 C35          1.0980     3.8250    -5.5220 c3         1 9N1      -0.082400
     22 C31          1.2900     3.7560    -4.0060 c3         1 9N1      -0.075400
     23 N2           0.6180     0.0020    -2.1040 na         1 9N1      -0.147300
     24 C19          3.1260     0.0030    -1.6450 ca         1 9N1      -0.119000
     25 C29          3.6440     0.0010     0.6990 ca         1 9N1      -0.146000
     26 C1          -0.4400     0.0000    -1.2350 cd         1 9N1       0.483400
     27 C11         -2.3280    -0.9170    -2.5750 ca         1 9N1      -0.048000
     28 C16         -3.6550    -0.9140    -2.9410 ca         1 9N1      -0.267000
     29 O20         -5.8440    -0.0050    -2.7390 os         1 9N1      -0.323900
     30 C25         -6.2440    -0.9730    -3.7100 c3         1 9N1       0.128700
     31 C12         -4.0850     0.9110    -1.4290 ca         1 9N1      -0.261000
     32 C9          -2.7540     0.9170    -1.0540 ca         1 9N1       0.219100
     33 O17         -2.3100     1.8090    -0.1310 os         1 9N1      -0.293900
     34 H1          -0.4960    -0.0040    -3.8750 h1         1 9N1       0.078700
     35 H2           2.0060    -0.0020     2.0560 ha         1 9N1       0.139000
     36 H3           0.7470     2.4510    -2.3880 hc         1 9N1       0.047200
     37 H4          -0.4510     2.5370    -3.6920 hc         1 9N1       0.047200
     38 H5          -4.0470     2.1520     0.9220 h1         1 9N1       0.045033
     39 H6          -2.7870     3.3780     1.1160 h1         1 9N1       0.045033
     40 H7          -3.7150     3.2940    -0.3880 h1         1 9N1       0.045033
     41 H9          -0.0680    -3.8610    -6.5090 hc         1 9N1       0.048200
     42 H10          5.1130     0.0040    -0.8620 ha         1 9N1       0.131000
     43 H11         -0.4740    -2.3080    -4.3410 hn         1 9N1       0.310500
     44 H12          2.0740    -3.2970    -5.4150 h1         1 9N1       0.081700
     45 H13          2.3500    -3.7230    -2.9970 hc         1 9N1       0.048200
     46 H14          0.8080    -4.5950    -2.9760 hc         1 9N1       0.048200
     47 H15          3.2470    -5.3500    -4.6260 hc         1 9N1       0.045700
     48 H16          2.7090    -6.1640    -3.1470 hc         1 9N1       0.045700
     49 H17          0.5680    -6.7310    -4.2400 hc         1 9N1       0.042700
     50 H18          1.9390    -7.3760    -5.1590 hc         1 9N1       0.042700
     51 H19          1.8330    -5.4310    -6.6790 hc         1 9N1       0.045700
     52 H20          0.2910    -6.3030    -6.6590 hc         1 9N1       0.045700
     53 H21          2.2840     1.2270    -3.8850 hc         1 9N1       0.085700
     54 H22          1.4730     0.4530    -6.0870 hc         1 9N1       0.047200
     55 H23         -0.0260     1.3690    -5.8540 hc         1 9N1       0.047200
     56 H24          2.7740     2.5480    -5.9410 hc         1 9N1       0.044450
     57 H25          1.5770     2.6340    -7.2450 hc         1 9N1       0.044450
     58 H26          1.5850     4.7130    -5.9070 hc         1 9N1       0.040200
     59 H27          0.0390     3.8600    -5.7490 hc         1 9N1       0.040200
     60 H28          2.3490     3.7170    -3.7790 hc         1 9N1       0.044450
     61 H29          0.8490     4.6330    -3.5470 hc         1 9N1       0.044450
     62 H30          3.4520     0.0050    -2.6780 ha         1 9N1       0.154000
     63 H31          4.3850     0.0010     1.4890 ha         1 9N1       0.129000
     64 H32         -1.6450    -1.6300    -3.0190 ha         1 9N1       0.130000
     65 H33         -4.0140    -1.6270    -3.6740 ha         1 9N1       0.137000
     66 H34         -6.0450    -1.9680    -3.3320 h1         1 9N1       0.044033
     67 H35         -5.6860    -0.8170    -4.6260 h1         1 9N1       0.044033
     68 H36         -7.3030    -0.8680    -3.9110 h1         1 9N1       0.044033
     69 H37         -4.7750     1.6200    -0.9870 ha         1 9N1       0.155000
     70 O13          2.4350    -1.2040    -4.2920 o          1 9N1      -0.595100
     71 H8          -0.6060    -4.6760    -5.0300 hc         1 9N1       0.048200
     72 C24         -3.2730     2.7130     0.4130 c3         1 9N1       0.123700
@<TRIPOS>BOND
     1    72    33 1
     2    16    17 1
     3    16    15 1
     4    17    10 1
     5    15    14 1
     6    33    32 1
     7    10    13 1
     8    14    13 1
     9    30    29 1
    10     8    25 ar
    11     8     6 ar
    12    31    32 ar
    13    31     7 ar
    14    32     2 ar
    15     1     6 1
    16     1    26 2
    17    25    11 ar
    18     6     5 ar
    19    13    12 1
    20     7    29 1
    21     7    28 ar
    22     2    26 1
    23     2    27 ar
    24    26    23 1
    25    12     3 1
    26    11    24 ar
    27     5    23 1
    28     5    24 ar
    29    28    27 ar
    30    23     4 1
    31     3     4 1
    32     3    70 2
    33     4    18 1
    34    18     9 1
    35    18    19 1
    36     9    22 1
    37    19    20 1
    38    22    21 1
    39    20    21 1
    40     4    34 1
    41     8    35 1
    42     9    36 1
    43     9    37 1
    44    72    38 1
    45    72    39 1
    46    72    40 1
    47    10    71 1
    48    10    41 1
    49    11    42 1
    50    12    43 1
    51    13    44 1
    52    14    45 1
    53    14    46 1
    54    15    47 1
    55    15    48 1
    56    16    49 1
    57    16    50 1
    58    17    51 1
    59    17    52 1
    60    18    53 1
    61    19    54 1
    62    19    55 1
    63    20    56 1
    64    20    57 1
    65    21    58 1
    66    21    59 1
    67    22    60 1
    68    22    61 1
    69    24    62 1
    70    25    63 1
    71    27    64 1
    72    28    65 1
    73    30    66 1
    74    30    67 1
    75    30    68 1
    76    31    69 1
@<TRIPOS>SUBSTRUCTURE
     1 9N1         1 TEMP              0 ****  ****    0 ROOT
