@<TRIPOS>MOLECULE
9N2
   31    33     1     0     0
SMALL
bcc


@<TRIPOS>ATOM
      1 F            0.0000     0.0000     0.0000 f          1 9N2      -0.119900
      2 C12          1.3510     0.0000     0.0000 ca         1 9N2       0.107900
      3 C11          2.0420     0.0000     1.2010 ca         1 9N2      -0.136000
      4 C10          3.4190     0.0000     1.2080 ca         1 9N2      -0.085000
      5 C13          2.0440    -0.0070    -1.2070 ca         1 9N2       0.074100
      6 O1           1.3620    -0.0080    -2.3830 oh         1 9N2      -0.484100
      7 C14          3.4270    -0.0130    -1.2100 ca         1 9N2      -0.061000
      8 C9           4.1240    -0.0020     0.0010 ca         1 9N2      -0.177600
      9 C8           5.6000    -0.0070     0.0050 c          1 9N2       0.542200
     10 O            6.2100    -0.1210    -1.0390 o          1 9N2      -0.550100
     11 C7           6.3370     0.1260     1.2830 ca         1 9N2       0.315800
     12 C6           7.7330    -0.0260     1.2890 ca         1 9N2      -0.164300
     13 C5           8.4240     0.0950     2.4600 ca         1 9N2      -0.061000
     14 N1           5.6700     0.3910     2.3890 nb         1 9N2      -0.520000
     15 C15          6.2910     0.5210     3.5610 ca         1 9N2       0.347600
     16 C4           7.7020     0.3730     3.6360 ca         1 9N2      -0.121300
     17 C3           8.3550     0.5090     4.8720 ca         1 9N2      -0.078000
     18 C2           7.6390     0.7750     5.9940 ca         1 9N2      -0.070000
     19 C16          5.5680     0.8030     4.7340 ca         1 9N2      -0.105300
     20 C1           6.2400     0.9190     5.9380 ca         1 9N2       0.043000
     21 C            5.5060     1.2000     7.1350 cg         1 9N2       0.219800
     22 N            4.9100     1.4100     8.0790 n1         1 9N2      -0.362800
     23 H1           1.4980     0.0000     2.1380 ha         1 9N2       0.122000
     24 H2           3.9560     0.0000     2.1500 ha         1 9N2       0.169000
     25 H3           1.3480     0.8660    -2.7380 ho         1 9N2       0.405000
     26 H4           3.9670    -0.0190    -2.1490 ha         1 9N2       0.133000
     27 H5           8.2600    -0.2300     0.3650 ha         1 9N2       0.137000
     28 H6           9.5010    -0.0210     2.4690 ha         1 9N2       0.119000
     29 H7           9.4320     0.3990     4.9300 ha         1 9N2       0.116000
     30 H8           8.1440     0.8800     6.9470 ha         1 9N2       0.117000
     31 H9           4.4910     0.9170     4.6920 ha         1 9N2       0.127000
@<TRIPOS>BOND
     1     1     2 1   
     2     2     3 ar  
     3     2     5 ar  
     4     3     4 ar  
     5     3    23 1   
     6     4     8 ar  
     7     4    24 1   
     8     5     6 1   
     9     5     7 ar  
    10     6    25 1   
    11     7     8 ar  
    12     7    26 1   
    13     8     9 1   
    14     9    10 2   
    15     9    11 1   
    16    11    12 ar  
    17    11    14 ar  
    18    12    13 ar  
    19    12    27 1   
    20    13    16 ar  
    21    13    28 1   
    22    14    15 ar  
    23    15    16 ar  
    24    15    19 ar  
    25    16    17 ar  
    26    17    18 ar  
    27    17    29 1   
    28    18    20 ar  
    29    18    30 1   
    30    19    20 ar  
    31    19    31 1   
    32    20    21 1   
    33    21    22 3   
@<TRIPOS>SUBSTRUCTURE
     1 9N2         1 TEMP              0 ****  ****    0 ROOT
