@<TRIPOS>MOLECULE
9N4
   72    76     1     0     0
SMALL
bcc


@<TRIPOS>ATOM
      1 N3           0.0000     0.0000     0.0000 nc         1 9N4      -0.496100
      2 C4           2.1610     0.0000    -1.2080 ca         1 9N4      -0.180900
      3 C5           3.4910    -1.2910     2.4190 c          1 9N4       0.537100
      4 C7           3.1790     0.0000     1.7080 c3         1 9N4      -0.139000
      5 C8           0.6710    -0.0000     2.1190 ca         1 9N4      -0.235200
      6 C10          5.0580    -2.9200     3.1630 ca         1 9N4      -0.104400
      7 C13          2.6850     0.8780    -3.3900 ca         1 9N4      -0.261000
      8 C15          5.9710    -2.9910     4.2060 ca         1 9N4      -0.072800
      9 C17          3.4280     1.1760     2.6530 c3         1 9N4      -0.064700
     10 C21          0.5020     0.0000     3.4970 ca         1 9N4      -0.074000
     11 C24          5.6250    -5.3560     4.3460 ca         1 9N4      -0.089000
     12 C26          6.2530    -4.2070     4.7940 ca         1 9N4      -0.099500
     13 C28          6.6550    -1.7400     4.6960 c3         1 9N4       0.048700
     14 C32          5.6110    -0.9480    -4.6230 c3         1 9N4       0.244700
     15 C18          3.7510    -0.0060    -3.4820 ca         1 9N4       0.204100
     16 C19          4.0220    -0.8860    -2.4410 ca         1 9N4      -0.259000
     17 C12          3.2350    -0.8860    -1.3100 ca         1 9N4      -0.030000
     18 C11          1.8890     0.8880    -2.2590 ca         1 9N4       0.228100
     19 O20          0.8460     1.7520    -2.1680 os         1 9N4      -0.275900
     20 C31          0.6280     2.6260    -3.2770 c3         1 9N4       0.236700
     21 C1           1.3120     0.0000     0.0000 cd         1 9N4       0.286400
     22 C9          -0.4550     0.0010     1.2770 ca         1 9N4       0.059400
     23 C23         -1.7350     0.0010     1.8400 ca         1 9N4      -0.043000
     24 C34         -1.8810     0.0010     3.1990 ca         1 9N4      -0.122000
     25 C33         -0.7700     0.0010     4.0300 ca         1 9N4      -0.097000
     26 N2           1.7750     0.0000     1.2880 na         1 9N4       0.335700
     27 C29          4.9220     1.2710     2.9690 c3         1 9N4      -0.040900
     28 C36          5.1710     2.4470     3.9150 c3         1 9N4      -0.018900
     29 C37          4.7090     3.7430     3.2480 c3         1 9N4      -0.027400
     30 C35          3.2150     3.6500     2.9320 c3         1 9N4      -0.018900
     31 C30          2.9650     2.4740     1.9870 c3         1 9N4      -0.040900
     32 O14          2.5910    -1.9720     2.8610 o          1 9N4      -0.605100
     33 N6           4.7710    -1.6880     2.5640 ns         1 9N4      -0.042100
     34 C25          4.7240    -5.2900     3.3000 ca         1 9N4      -0.099500
     35 C16          4.4340    -4.0760     2.7110 ca         1 9N4      -0.072800
     36 C27          3.4510    -4.0050     1.5710 c3         1 9N4       0.048700
     37 H1           3.8160     0.0960     0.8370 h1         1 9N4       0.067700
     38 H2           2.4780     1.5620    -4.2040 ha         1 9N4       0.138000
     39 H3           2.8750     1.0290     3.5740 hc         1 9N4       0.059700
     40 H4           1.3660    -0.0000     4.1510 ha         1 9N4       0.108000
     41 H5           5.8490    -6.3100     4.8080 ha         1 9N4       0.103000
     42 H6           6.9620    -4.2620     5.6120 ha         1 9N4       0.109000
     43 H7           7.4130    -2.0040     5.4230 hc         1 9N4       0.014700
     44 H8           5.9250    -1.0860     5.1580 hc         1 9N4       0.014700
     45 H9           7.1180    -1.2310     3.8600 hc         1 9N4       0.014700
     46 H10          6.1440    -0.8540    -5.5610 h1         1 9N4      -0.001300
     47 H11          5.2260    -1.9560    -4.5260 h1         1 9N4      -0.001300
     48 H12          6.2860    -0.7380    -3.8020 h1         1 9N4      -0.001300
     49 H13          4.8550    -1.5740    -2.5190 ha         1 9N4       0.124000
     50 H14          3.4490    -1.5740    -0.5000 ha         1 9N4       0.106000
     51 H15         -0.2260     3.2610    -3.0740 h1         1 9N4      -0.000300
     52 H16          0.4370     2.0380    -4.1670 h1         1 9N4      -0.000300
     53 H17          1.5070     3.2400    -3.4310 h1         1 9N4      -0.000300
     54 H18         -2.6100     0.0010     1.2010 ha         1 9N4       0.107000
     55 H19         -2.8740     0.0010     3.6320 ha         1 9N4       0.101000
     56 H20         -0.9020     0.0010     5.1050 ha         1 9N4       0.100000
     57 H21          5.4750     1.4250     2.0500 hc         1 9N4       0.024200
     58 H22          5.2480     0.3530     3.4430 hc         1 9N4       0.024200
     59 H23          6.2300     2.5130     4.1350 hc         1 9N4       0.017450
     60 H24          4.6150     2.2950     4.8320 hc         1 9N4       0.017450
     61 H25          5.2630     3.8920     2.3290 hc         1 9N4       0.015200
     62 H26          4.8840     4.5750     3.9200 hc         1 9N4       0.015200
     63 H27          2.8900     4.5680     2.4580 hc         1 9N4       0.017450
     64 H28          2.6620     3.4970     3.8510 hc         1 9N4       0.017450
     65 H29          3.5220     2.6260     1.0700 hc         1 9N4       0.024200
     66 H30          1.9070     2.4080     1.7660 hc         1 9N4       0.024200
     67 H31          5.5130    -1.1280     2.1920 hn         1 9N4       0.177500
     68 H32          4.2360    -6.1910     2.9490 ha         1 9N4       0.109000
     69 H33          3.4720    -4.9360     1.0170 hc         1 9N4       0.014700
     70 H34          3.7190    -3.1870     0.9120 hc         1 9N4       0.014700
     71 H35          2.4540    -3.8400     1.9630 hc         1 9N4       0.014700
     72 O22          4.5320    -0.0120    -4.5930 os         1 9N4      -0.306900
@<TRIPOS>BOND
     1     1    21 2   
     2     1    22 1   
     3     2    17 ar  
     4     2    18 ar  
     5     2    21 1   
     6     3     4 1   
     7     3    32 2   
     8     3    33 1   
     9     4     9 1   
    10     4    26 1   
    11     4    37 1   
    12     5    10 ar  
    13     5    22 ar  
    14     5    26 1   
    15     6     8 ar  
    16     6    33 1   
    17     6    35 ar  
    18     7    15 ar  
    19     7    18 ar  
    20     7    38 1   
    21     8    12 ar  
    22     8    13 1   
    23     9    27 1   
    24     9    31 1   
    25     9    39 1   
    26    10    25 ar  
    27    10    40 1   
    28    11    12 ar  
    29    11    34 ar  
    30    11    41 1   
    31    12    42 1   
    32    13    43 1   
    33    13    44 1   
    34    13    45 1   
    35    14    46 1   
    36    14    47 1   
    37    14    48 1   
    38    14    72 1   
    39    15    16 ar  
    40    15    72 1   
    41    16    17 ar  
    42    16    49 1   
    43    17    50 1   
    44    18    19 1   
    45    19    20 1   
    46    20    51 1   
    47    20    52 1   
    48    20    53 1   
    49    21    26 1   
    50    22    23 ar  
    51    23    24 ar  
    52    23    54 1   
    53    24    25 ar  
    54    24    55 1   
    55    25    56 1   
    56    27    28 1   
    57    27    57 1   
    58    27    58 1   
    59    28    29 1   
    60    28    59 1   
    61    28    60 1   
    62    29    30 1   
    63    29    61 1   
    64    29    62 1   
    65    30    31 1   
    66    30    63 1   
    67    30    64 1   
    68    31    65 1   
    69    31    66 1   
    70    33    67 1   
    71    34    35 ar  
    72    34    68 1   
    73    35    36 1   
    74    36    69 1   
    75    36    70 1   
    76    36    71 1   
@<TRIPOS>SUBSTRUCTURE
     1 9N4         1 TEMP              0 ****  ****    0 ROOT
