@<TRIPOS>MOLECULE
9N5
   47    48     1     0     0
SMALL
bcc


@<TRIPOS>ATOM
      1 CAA          0.0000     0.0000     0.0000 ca         1 9N5      -0.046000
      2 CAB          1.3890     0.0000     0.0000 ca         1 9N5      -0.089300
      3 CAC          2.0820     0.0000     1.2230 ca         1 9N5       0.421200
      4 CAE          0.1120    -0.0090     2.4330 ca         1 9N5       0.364600
      5 CAF         -0.6580    -0.0020     1.2420 ca         1 9N5      -0.118300
      6 CAG         -0.5470    -0.0100     3.6740 ca         1 9N5      -0.125300
      7 CAH         -1.9070    -0.0050     3.7190 ca         1 9N5      -0.101000
      8 CAI         -2.6670     0.0020     2.5460 ca         1 9N5       0.117100
      9 CAJ         -2.0610     0.0040     1.3220 ca         1 9N5      -0.117000
     10 CAK          2.1110     0.0020    -1.2370 cg         1 9N5      -0.138000
     11 CAL          2.6990     0.0230    -2.2530 c1         1 9N5      -0.092500
     12 CAN         -4.7550    -1.0770     2.5150 c3         1 9N5       0.226900
     13 CAO         -6.4560    -0.7260     2.2750 c          1 9N5       0.688100
     14 CAT         -8.5590    -0.4920     3.2590 c3         1 9N5      -0.117900
     15 CAU         -8.7670     0.7820     2.5140 c2         1 9N5       0.379200
     16 CAX        -11.7690     1.9060     3.6800 c3         1 9N5       0.270700
     17 CAY         -9.6280    -1.4210     3.3800 c3         1 9N5      -0.070600
     18 CAZ         -8.3810    -0.1660     4.8330 c3         1 9N5      -0.070600
     19 NAD          1.4480    -0.0020     2.3680 nb         1 9N5      -0.561000
     20 NAS         -6.8890    -0.7440     3.5720 ns         1 9N5      -0.185900
     21 NAV         -9.9410     1.4440     2.8520 n2         1 9N5      -0.435200
     22 OAM         -4.0240     0.0070     2.6240 os         1 9N5      -0.272900
     23 OAP         -4.5000    -2.2560     3.3940 os         1 9N5      -0.520600
     24 OAR         -6.5990     0.0110     1.4220 o          1 9N5      -0.513100
     25 OAW        -10.8200     0.8110     3.7230 os         1 9N5      -0.184300
     26 HAA         -0.3660     0.1300    -1.0110 ha         1 9N5       0.124000
     27 HAC          3.1520    -0.1620     1.1790 h4         1 9N5      -0.015900
     28 HAG          0.0340    -0.1590     4.5760 ha         1 9N5       0.120000
     29 HAH         -2.4350    -0.1420     4.6550 ha         1 9N5       0.119000
     30 HAJ         -2.6820     0.1810     0.4520 ha         1 9N5       0.125000
     31 HAL          3.1020    -0.4770    -3.1250 ha         1 9N5       0.138500
     32 HAN         -4.5680    -1.6440     1.6110 h2         1 9N5      -0.051300
     33 HAQ         -4.5820    -4.1950     3.7810 h1         1 9N5      -0.042967
     34 HAR         -4.9770    -3.6630     2.4260 h1         1 9N5      -0.042967
     35 HAS         -3.3810    -3.2360     2.4600 h1         1 9N5      -0.042967
     36 HAU         -7.9640     0.8640     1.7920 h4         1 9N5       0.084800
     37 HAX        -11.5840     2.5350     4.5420 h1         1 9N5      -0.001967
     38 HAY        -12.6270     1.2660     3.8450 h1         1 9N5      -0.001967
     39 HAZ        -11.9100     2.5170     2.7960 h1         1 9N5      -0.001967
     40 HA1         -9.9390    -1.5990     2.3580 hc         1 9N5       0.026367
     41 HA2         -9.0650    -2.3450     3.4430 hc         1 9N5       0.026367
     42 HA0        -10.4440    -1.3320     4.0860 hc         1 9N5       0.026367
     43 HA3         -8.8930    -0.7450     5.5920 hc         1 9N5       0.026367
     44 HA4         -7.7040     0.4810     5.3790 hc         1 9N5       0.026367
     45 HA5         -9.1770     0.5650     4.9040 hc         1 9N5       0.026367
     46 HA6         -6.6590    -1.0560     4.4950 hn         1 9N5       0.275500
     47 CAQ         -4.2050    -3.4050     3.1420 c3         1 9N5       0.345700
@<TRIPOS>BOND
     1     1     2 ar  
     2     1     5 ar  
     3     1    26 1   
     4     2     3 ar  
     5     2    10 1   
     6     3    19 ar  
     7     3    27 1   
     8     4     5 ar  
     9     4     6 ar  
    10     4    19 ar  
    11     5     9 ar  
    12     6     7 ar  
    13     6    28 1   
    14     7     8 ar  
    15     7    29 1   
    16     8     9 ar  
    17     8    22 1   
    18     9    30 1   
    19    10    11 3   
    20    11    31 1   
    21    12    13 1   
    22    12    22 1   
    23    12    23 1   
    24    12    32 1   
    25    13    20 1   
    26    13    24 2   
    27    14    15 1   
    28    14    17 1   
    29    14    18 1   
    30    14    20 1   
    31    15    21 2   
    32    15    36 1   
    33    16    25 1   
    34    16    37 1   
    35    16    38 1   
    36    16    39 1   
    37    17    40 1   
    38    17    41 1   
    39    17    42 1   
    40    18    43 1   
    41    18    44 1   
    42    18    45 1   
    43    20    46 1   
    44    21    25 1   
    45    23    47 1   
    46    33    47 1   
    47    34    47 1   
    48    35    47 1   
@<TRIPOS>SUBSTRUCTURE
     1 9N5         1 TEMP              0 ****  ****    0 ROOT
