@<TRIPOS>MOLECULE
molecule
   47    48     1     0     0
SMALL
bcc


@<TRIPOS>ATOM
      1 CAA          0.0000     0.0000     0.0000 ca         1 9N5      -0.067000
      2 CAB          1.3890     0.0000     0.0000 ca         1 9N5      -0.096300
      3 CAC          2.0820     0.0000     1.2230 ca         1 9N5       0.437200
      4 CAE          0.1120    -0.0090     2.4330 ca         1 9N5       0.386600
      5 CAF         -0.6580    -0.0020     1.2420 ca         1 9N5      -0.103300
      6 CAG         -0.5470    -0.0100     3.6740 ca         1 9N5      -0.124300
      7 CAH         -1.9070    -0.0050     3.7190 ca         1 9N5      -0.212000
      8 CAI         -2.6670     0.0020     2.5460 ca         1 9N5       0.150100
      9 CAJ         -2.0610     0.0040     1.3220 ca         1 9N5      -0.158000
     10 CAK          2.1110     0.0020    -1.2370 cg         1 9N5      -0.131000
     11 CAL          2.6930    -0.0150    -2.2570 c1         1 9N5      -0.122500
     12 CAN         -4.7800     0.4430     3.8020 c3         1 9N5       0.346900
     13 CAO         -5.7040    -0.7080     3.7580 c          1 9N5       0.605100
     14 CAT         -8.0910    -1.2140     4.7830 c3         1 9N5       0.286100
     15 CAU         -9.1900    -0.4220     5.3140 c2         1 9N5       0.369200
     16 CAX        -11.1090    -0.9250     8.2490 c3         1 9N5       0.119700
     17 CAY         -7.6040    -2.2270     5.5040 c3         1 9N5      -0.130100
     18 CAZ         -8.4310    -1.5520     3.4430 c3         1 9N5      -0.130100
     19 NAD          1.4480    -0.0020     2.3680 nb         1 9N5      -0.673000
     20 NAS         -7.1040    -0.1720     4.7230 ns         1 9N5      -0.736900
     21 NAV         -9.7380    -0.7430     6.5200 n2         1 9N5      -0.503200
     22 OAM         -4.0240     0.0070     2.6240 os         1 9N5      -0.465900
     23 OAP         -5.0720     1.5990     3.6380 os         1 9N5      -0.340600
     24 OAR         -5.7580    -1.9850     3.4140 o          1 9N5      -0.505100
     25 OAW        -10.8150    -0.1640     7.0980 os         1 9N5      -0.169300
     26 HAA         -0.4680     0.1530    -0.9650 ha         1 9N5       0.152000
     27 HAC          3.1500    -0.1800     1.2380 h4         1 9N5       0.031100
     28 HAG          0.0330    -0.0150     4.5890 ha         1 9N5       0.151000
     29 HAH         -2.3690    -0.1540     4.6870 ha         1 9N5       0.133000
     30 HAJ         -2.7910     0.1600     0.5370 ha         1 9N5       0.158000
     31 HAL          3.2060     0.0230    -3.2100 ha         1 9N5       0.170500
     32 HAN         -4.0150    -0.0300     4.4050 h2         1 9N5       0.064700
     33 HAQ         -3.7380     2.2840     4.7650 h1         1 9N5       0.060367
     34 HAR         -3.4150     2.5930     2.8780 h1         1 9N5       0.060367
     35 HAS         -4.4510     3.5260     3.9080 h1         1 9N5       0.060367
     36 HAU         -9.5630     0.5250     4.9440 h4         1 9N5       0.004800
     37 HAX        -10.2440    -0.8750     8.9000 h1         1 9N5       0.048367
     38 HAY        -11.6230    -0.2510     8.9240 h1         1 9N5       0.048367
     39 HAZ        -11.3370    -1.9450     7.9610 h1         1 9N5       0.048367
     40 HA1         -8.3340    -3.0230     5.5820 hc         1 9N5       0.050033
     41 HA2         -6.8440    -2.9450     5.2200 hc         1 9N5       0.050033
     42 HA0         -7.2930    -2.0880     6.5320 hc         1 9N5       0.050033
     43 HA3         -9.3840    -2.0640     3.5040 hc         1 9N5       0.050033
     44 HA4         -8.7980    -0.7620     2.7990 hc         1 9N5       0.050033
     45 HA5         -7.8140    -2.2230     2.8590 hc         1 9N5       0.050033
     46 HA6         -6.7070     0.7340     4.8750 hn         1 9N5       0.350500
     47 CAQ         -4.0460     2.5330     3.7560 c3         1 9N5       0.129700
@<TRIPOS>BOND
     1    11    10 3
     2    10     2 1
     3     2     3 ar
     4     2     1 ar
     5     3    19 ar
     6     1     5 ar
     7    19     4 ar
     8     5     4 ar
     9     5     9 ar
    10     4     6 ar
    11     9     8 ar
    12     6     7 ar
    13    23    47 1
    14    23    12 1
    15     8     7 ar
    16     8    22 1
    17    12    22 1
    18    12    13 1
    19    24    13 2
    20    13    20 1
    21    20    14 1
    22    18    14 1
    23    14    17 1
    24    14    15 1
    25    15    21 2
    26    21    25 1
    27    16    25 1
    28     1    26 1
    29     3    27 1
    30     6    28 1
    31     7    29 1
    32     9    30 1
    33    11    31 1
    34    12    32 1
    35    47    33 1
    36    47    34 1
    37    47    35 1
    38    15    36 1
    39    16    37 1
    40    16    38 1
    41    16    39 1
    42    17    40 1
    43    17    41 1
    44    17    42 1
    45    18    43 1
    46    18    44 1
    47    18    45 1
    48    20    46 1
@<TRIPOS>SUBSTRUCTURE
     1 9N5         1 TEMP              0 ****  ****    0 ROOT
