@<TRIPOS>MOLECULE
molecule
   66    71     1     0     0
SMALL
bcc


@<TRIPOS>ATOM
      1 N1           0.0000     0.0000     0.0000 na         1 9N7      -0.107300
      2 N3           0.6440     0.0010     2.0970 nc         1 9N7      -0.596100
      3 C4           1.3820     0.0000     0.0000 ca         1 9N7      -0.054200
      4 C5           1.7750     0.0000     1.3500 ca         1 9N7       0.087400
      5 C6          -1.6290    -1.3020    -1.2410 c          1 9N7       0.631100
      6 C7          -0.8700    -0.0010    -1.1790 c3         1 9N7      -0.025000
      7 C8           2.3420    -0.0010    -1.0020 ca         1 9N7      -0.194000
      8 C10          3.1370     0.0050     1.6720 ca         1 9N7      -0.071000
      9 C13          3.6830    -0.0010    -0.6690 ca         1 9N7       0.101900
     10 C15          4.0770     0.0030     0.6660 ca         1 9N7       0.051900
     11 C20         -4.8420    -4.9850    -2.1880 ca         1 9N7      -0.103600
     12 C21         -8.0430     0.4060     2.9830 cd         1 9N7       0.370200
     13 C22         -8.0740    -0.1790     4.1860 cc         1 9N7      -0.184400
     14 C24         -2.1420    -0.5560     3.0050 ca         1 9N7      -0.105000
     15 C26         -3.4510    -0.5520     3.4320 ca         1 9N7      -0.097500
     16 C28         -0.0190     0.1530    -2.4410 c3         1 9N7      -0.074700
     17 C2          -0.4040    -0.0050     1.3090 cd         1 9N7       0.507400
     18 F33          5.3920     0.0080     0.9760 f          1 9N7      -0.136900
     19 F32          4.6160    -0.0010    -1.6450 f          1 9N7      -0.126900
     20 C14         -1.8100    -0.0050     1.7640 ca         1 9N7      -0.084900
     21 C18         -4.4470     0.0010     2.6230 ca         1 9N7      -0.109500
     22 C9          -5.8510     0.0050     3.0820 cc         1 9N7       0.535900
     23 N11         -6.8620     0.4910     2.4180 nd         1 9N7      -0.679000
     24 S17         -6.4300    -0.6550     4.6080 ss         1 9N7      -0.238300
     25 C27         -4.1150     0.5510     1.3830 ca         1 9N7      -0.097500
     26 C25         -2.8070     0.5420     0.9540 ca         1 9N7      -0.105000
     27 C29         -3.3690    -2.6370    -2.1500 ca         1 9N7      -0.002400
     28 C35         -3.6150    -3.3220    -0.9640 ca         1 9N7      -0.165000
     29 C30         -4.3460    -4.4880    -0.9780 ca         1 9N7      -0.089000
     30 O23         -5.8690    -6.8950    -1.0590 o          1 9N7      -0.835800
     31 O34         -6.0650    -6.6590    -3.2580 o          1 9N7      -0.835800
     32 C31         -4.5930    -4.2950    -3.3780 ca         1 9N7      -0.089000
     33 C36         -3.8620    -3.1290    -3.3550 ca         1 9N7      -0.165000
     34 C37          0.6660     1.5210    -2.4280 c3         1 9N7      -0.090900
     35 C40          1.5170     1.6770    -3.6910 c3         1 9N7      -0.072400
     36 C41          0.6220     1.5660    -4.9260 c3         1 9N7      -0.084400
     37 C39         -0.0640     0.1990    -4.9380 c3         1 9N7      -0.072400
     38 C38         -0.9150     0.0430    -3.6760 c3         1 9N7      -0.090900
     39 H1          -1.5700     0.8230    -1.1120 h1         1 9N7       0.081700
     40 H2           2.5360    -0.9330    -1.5190 ha         1 9N7       0.177000
     41 H3           3.4420     0.0140     2.7110 ha         1 9N7       0.161000
     42 H4          -2.8780    -0.7000    -2.7390 hn         1 9N7       0.316500
     43 H5          -8.9380     0.7850     2.5040 h4         1 9N7       0.040100
     44 H6          -8.9570    -0.3350     4.7940 h4         1 9N7       0.177000
     45 H7          -1.3690    -0.9840     3.6310 ha         1 9N7       0.145500
     46 H8          -3.7080    -0.9790     4.3940 ha         1 9N7       0.149000
     47 H9           0.7330    -0.6250    -2.4720 hc         1 9N7       0.083700
     48 H10         -4.8880     0.9780     0.7550 ha         1 9N7       0.149000
     49 H11         -2.5500     0.9690    -0.0080 ha         1 9N7       0.145500
     50 H12         -3.2300    -2.9370    -0.0270 ha         1 9N7       0.119500
     51 H13         -4.5360    -5.0210    -0.0550 ha         1 9N7       0.155000
     52 H15         -4.9760    -4.6760    -4.3170 ha         1 9N7       0.155000
     53 H16         -3.6690    -2.5930    -4.2770 ha         1 9N7       0.119500
     54 H17          1.3020     1.5970    -1.5540 hc         1 9N7       0.053950
     55 H18         -0.0860     2.3000    -2.4030 hc         1 9N7       0.053950
     56 H19          2.0000     2.6470    -3.6820 hc         1 9N7       0.045200
     57 H20          2.2670     0.8950    -3.7190 hc         1 9N7       0.045200
     58 H21         -0.1300     2.3460    -4.8960 hc         1 9N7       0.037700
     59 H22          1.2260     1.6740    -5.8190 hc         1 9N7       0.037700
     60 H23         -0.6990     0.1230    -5.8120 hc         1 9N7       0.045200
     61 H24          0.6880    -0.5800    -4.9630 hc         1 9N7       0.045200
     62 H25         -1.6640     0.8250    -3.6480 hc         1 9N7       0.053950
     63 H26         -1.3970    -0.9270    -3.6850 hc         1 9N7       0.053950
     64 N12         -2.6290    -1.4560    -2.1310 ns         1 9N7      -0.462100
     65 O19         -1.3400    -2.2100    -0.4900 o          1 9N7      -0.568100
     66 C16         -5.6300    -6.2310    -2.2070 c          1 9N7       0.881200
@<TRIPOS>BOND
     1    31    66 1
     2    13    24 1
     3    13    12 2
     4    24    22 1
     5    29    28 ar
     6    29    11 ar
     7    66    11 1
     8    66    30 1
     9    12    23 1
    10    28    27 ar
    11    22    23 2
    12    22    21 1
    13    15    21 ar
    14    15    14 ar
    15    11    32 ar
    16    21    25 ar
    17    14    20 ar
    18     2     4 1
    19     2    17 2
    20    25    26 ar
    21    20    17 1
    22    20    26 ar
    23    27    64 1
    24    27    33 ar
    25     8     4 ar
    26     8    10 ar
    27     4     3 ar
    28    17     1 1
    29    32    33 ar
    30    64     5 1
    31    18    10 1
    32    10     9 ar
    33     1     3 1
    34     1     6 1
    35     3     7 ar
    36     9     7 ar
    37     9    19 1
    38     5     6 1
    39     5    65 2
    40     6    16 1
    41    16    34 1
    42    16    38 1
    43    34    35 1
    44    38    37 1
    45    35    36 1
    46    37    36 1
    47     6    39 1
    48     7    40 1
    49     8    41 1
    50    64    42 1
    51    12    43 1
    52    13    44 1
    53    14    45 1
    54    15    46 1
    55    16    47 1
    56    25    48 1
    57    26    49 1
    58    28    50 1
    59    29    51 1
    60    32    52 1
    61    33    53 1
    62    34    54 1
    63    34    55 1
    64    35    56 1
    65    35    57 1
    66    36    58 1
    67    36    59 1
    68    37    60 1
    69    37    61 1
    70    38    62 1
    71    38    63 1
@<TRIPOS>SUBSTRUCTURE
     1 9N7         1 TEMP              0 ****  ****    0 ROOT
