@<TRIPOS>MOLECULE
9N8
   35    37     1     0     0
SMALL
bcc


@<TRIPOS>ATOM
      1 C1           0.0000     0.0000     0.0000 ca         1 9N8      -0.101000
      2 C2           1.3840     0.0000     0.0000 ca         1 9N8      -0.061000
      3 C3           2.0830     0.0000     1.1930 ca         1 9N8      -0.132000
      4 C4           1.4030    -0.0000     2.3960 ca         1 9N8       0.141900
      5 C5           0.0030    -0.0000     2.4030 ca         1 9N8      -0.166600
      6 C6          -0.7330    -0.0010     3.6840 c          1 9N8       0.685300
      7 C7          -1.1940    -1.2720     4.2670 cc         1 9N8      -0.271600
      8 C8          -0.9320    -2.5430     3.7840 cd         1 9N8      -0.270300
      9 C11         -3.7040    -5.3230     7.8440 ca         1 9N8      -0.212700
     10 C12         -4.7980    -4.7030     8.4430 ca         1 9N8      -0.069000
     11 C15         -3.2670    -6.5450     8.3390 ca         1 9N8       0.375200
     12 C16         -1.9860    -1.4260     5.4280 cc         1 9N8       0.012000
     13 O1          -0.9570     1.0480     4.2570 o          1 9N8      -0.532100
     14 F            2.0860    -0.0010     3.5610 f          1 9N8      -0.117900
     15 C           -0.6950    -0.0010     1.1920 ca         1 9N8       0.072100
     16 Br          -2.5850     0.0070     1.1870 br         1 9N8      -0.096100
     17 C9          -2.1780    -2.7640     5.6060 cd         1 9N8      -0.438900
     18 N           -1.5270    -3.4340     4.5930 na         1 9N8       0.443900
     19 C10         -2.9440    -3.3850     6.6930 c          1 9N8       0.627700
     20 O           -3.4750    -2.6890     7.5390 o          1 9N8      -0.620100
     21 N1          -3.0590    -4.7260     6.7560 ns         1 9N8      -0.038100
     22 N2          -3.8730    -7.1100     9.3640 nb         1 9N8      -0.566000
     23 C14         -4.9090    -6.5470     9.9560 ca         1 9N8       0.389200
     24 C13         -5.4050    -5.3330     9.5170 ca         1 9N8      -0.200300
     25 H           -0.5400    -0.0000    -0.9390 ha         1 9N8       0.122000
     26 H1           1.9220     0.0000    -0.9400 ha         1 9N8       0.111000
     27 H2           3.1660    -0.0000     1.1850 ha         1 9N8       0.124000
     28 H3          -0.3470    -2.7780     2.9030 h4         1 9N8       0.151000
     29 H6          -5.1650    -3.7500     8.0790 ha         1 9N8       0.151000
     30 H9          -2.4190    -7.0370     7.8790 h4         1 9N8      -0.022900
     31 H10         -2.3690    -0.6300     6.0550 ha         1 9N8       0.154000
     32 H4          -1.5010    -4.4280     4.4780 hn         1 9N8       0.105700
     33 H5          -2.7080    -5.2940     6.0100 hn         1 9N8       0.155500
     34 H8          -5.3790    -7.0440    10.7960 h4         1 9N8      -0.018900
     35 H7          -6.2560    -4.8790    10.0090 ha         1 9N8       0.116000
@<TRIPOS>BOND
     1     1     2 ar  
     2     1    15 ar  
     3     1    25 1   
     4     2     3 ar  
     5     2    26 1   
     6     3     4 ar  
     7     3    27 1   
     8     4     5 ar  
     9     4    14 1   
    10     5     6 1   
    11     5    15 ar  
    12     6     7 1   
    13     6    13 2   
    14     7     8 2   
    15     7    12 1   
    16     8    18 1   
    17     8    28 1   
    18     9    10 ar  
    19     9    11 ar  
    20     9    21 1   
    21    10    24 ar  
    22    10    29 1   
    23    11    22 ar  
    24    11    30 1   
    25    12    17 2   
    26    12    31 1   
    27    15    16 1   
    28    17    18 1   
    29    17    19 1   
    30    18    32 1   
    31    19    20 2   
    32    19    21 1   
    33    21    33 1   
    34    22    23 ar  
    35    23    24 ar  
    36    23    34 1   
    37    24    35 1   
@<TRIPOS>SUBSTRUCTURE
     1 9N8         1 TEMP              0 ****  ****    0 ROOT
