@<TRIPOS>MOLECULE
molecule
   66    68     1     0     0
SMALL
bcc


@<TRIPOS>ATOM
      1 C8           0.0000     0.0000     0.0000 c2         1 9N9      -0.096400
      2 C5          -2.8920    -1.8990    -1.0750 c2         1 9N9      -0.109400
      3 C6          -2.1810    -0.8990    -0.5660 ce         1 9N9      -0.133000
      4 C2          -4.3400    -3.1810    -3.0600 c2         1 9N9      -0.145400
      5 C4          -4.3970    -1.9260    -0.9290 c3         1 9N9      -0.054200
      6 C20          5.2930    -1.4210     2.6120 c          1 9N9       0.597300
      7 C22          5.7960    -2.6040     3.2430 cg         1 9N9      -0.213200
      8 C23          6.1940    -3.5720     3.7750 ch         1 9N9      -0.166300
      9 C24          6.4490    -5.1650     4.2560 cf         1 9N9       0.012300
     10 C25          6.3130    -5.1400     5.5500 c2         1 9N9      -0.200200
     11 C26          6.9750    -6.6940     5.7890 c3         1 9N9      -0.106900
     12 C18          3.8260    -1.0870     2.6990 c3         1 9N9      -0.155700
     13 C19          3.5720    -0.2250     3.9380 c3         1 9N9      -0.082100
     14 C16          3.4020    -0.3170     1.4470 c3         1 9N9      -0.047700
     15 C15          3.5820    -1.2010     0.1850 c3         1 9N9      -0.079400
     16 C14          2.1880    -1.2720    -0.5010 c3         1 9N9      -0.079400
     17 C9           1.5000     0.0000     0.0000 c3         1 9N9      -0.033500
     18 C10          1.9150     0.0000     1.4990 c3         1 9N9      -0.062000
     19 C17          1.1830    -1.1310     2.2240 c3         1 9N9      -0.095100
     20 C11          1.4840     1.3210     2.0930 c3         1 9N9      -0.066400
     21 C12         -0.0530     1.3350     2.1220 c3         1 9N9      -0.079400
     22 C13         -0.6490     1.1690     0.7260 c3         1 9N9      -0.043200
     23 C7          -0.7110    -0.9510    -0.5980 ce         1 9N9      -0.153000
     24 C           -2.2120    -3.0270    -1.8150 c3         1 9N9      -0.054200
     25 C3          -5.0210    -2.0490    -2.3240 c3         1 9N9       0.193800
     26 O           -4.8390    -0.8290    -3.0470 oh         1 9N9      -0.603800
     27 C21         -5.0410    -4.1660    -3.5620 c2         1 9N9      -0.190000
     28 C1          -2.8410    -3.1480    -3.2080 c3         1 9N9       0.193800
     29 O1          -2.3950    -4.3570    -3.8280 oh         1 9N9      -0.603800
     30 H2          -2.6810    -0.0940    -0.0410 ha         1 9N9       0.131000
     31 H3          -4.7320    -1.0080    -0.4610 hc         1 9N9       0.057700
     32 H4           6.6020    -5.8120     3.4010 ha         1 9N9       0.183000
     33 H5           6.4520    -4.2640     6.1730 ha         1 9N9       0.186000
     34 H6           7.6390    -7.0140     4.9950 hc         1 9N9       0.073367
     35 H7           6.0250    -6.9540     6.2390 hc         1 9N9       0.073367
     36 H8           7.3790    -6.3450     6.7320 hc         1 9N9       0.073367
     37 H9           3.2510    -2.0020     2.7720 hc         1 9N9       0.077700
     38 H10          2.6080    -0.4780     4.3630 hc         1 9N9       0.043033
     39 H11          3.5800     0.8210     3.6580 hc         1 9N9       0.043033
     40 H12          4.3490    -0.4090     4.6710 hc         1 9N9       0.043033
     41 H13          3.9760     0.5960     1.3480 hc         1 9N9       0.073700
     42 H14          3.9050    -2.1940     0.4710 hc         1 9N9       0.048700
     43 H15          4.3020    -0.7470    -0.4860 hc         1 9N9       0.048700
     44 H16          2.2910    -1.2510    -1.5790 hc         1 9N9       0.047200
     45 H17          1.6460    -2.1520    -0.1770 hc         1 9N9       0.047200
     46 H18          1.8880     0.8760    -0.5060 hc         1 9N9       0.069700
     47 H19          0.1990    -1.2610     1.7900 hc         1 9N9       0.040700
     48 H20          1.7470    -2.0500     2.1230 hc         1 9N9       0.040700
     49 H21          1.0840    -0.8820     3.2740 hc         1 9N9       0.040700
     50 H22          1.8470     2.1350     1.4770 hc         1 9N9       0.045700
     51 H23          1.8710     1.4140     3.1000 hc         1 9N9       0.045700
     52 H24         -0.3880     2.2780     2.5370 hc         1 9N9       0.042200
     53 H25         -0.4000     0.5240     2.7510 hc         1 9N9       0.042200
     54 H26         -1.7130     0.9860     0.8140 hc         1 9N9       0.050200
     55 H27         -0.4840     2.0760     0.1580 hc         1 9N9       0.050200
     56 H28         -0.2090    -1.7700    -1.0970 ha         1 9N9       0.135000
     57 H29         -1.1540    -2.8120    -1.9120 hc         1 9N9       0.057700
     58 H30         -2.3520    -3.9540    -1.2720 hc         1 9N9       0.057700
     59 H31         -6.0790    -2.2650    -2.2290 h1         1 9N9       0.046700
     60 H32         -5.6800    -0.4450    -3.2320 ho         1 9N9       0.401500
     61 H33         -4.5430    -4.9710    -4.0890 ha         1 9N9       0.122500
     62 H34         -6.1190    -4.1760    -3.4520 ha         1 9N9       0.122500
     63 H35         -2.5540    -2.2950    -3.8120 h1         1 9N9       0.046700
     64 H36         -1.6800    -4.1650    -4.4110 ho         1 9N9       0.401500
     65 H1          -4.6880    -2.7760    -0.3240 hc         1 9N9       0.057700
     66 O2           6.0470    -0.6880     2.0050 o          1 9N9      -0.514100
@<TRIPOS>BOND
     1    27     4 2
     2    26    25 1
     3     4    25 1
     4     4    28 1
     5    25     5 1
     6    28    29 1
     7    28    24 1
     8     5     2 1
     9    24     2 1
    10     2     3 2
    11     3    23 1
    12    23     1 2
    13     1    17 1
    14     1    22 1
    15    19    18 1
    16    16    17 1
    17    16    15 1
    18    13    12 1
    19    17    18 1
    20    22    21 1
    21    15    14 1
    22    18    14 1
    23    18    20 1
    24    12    14 1
    25    12     6 1
    26    21    20 1
    27    10    11 1
    28    10     9 2
    29     6     7 1
    30     6    66 2
    31     7     8 3
    32     8     9 1
    33     3    30 1
    34     5    31 1
    35     9    32 1
    36    10    33 1
    37    11    34 1
    38    11    35 1
    39    11    36 1
    40    12    37 1
    41    13    38 1
    42    13    39 1
    43    13    40 1
    44    14    41 1
    45    15    42 1
    46    15    43 1
    47    16    44 1
    48    16    45 1
    49    17    46 1
    50    19    47 1
    51    19    48 1
    52    19    49 1
    53    20    50 1
    54    20    51 1
    55    21    52 1
    56    21    53 1
    57    22    54 1
    58    22    55 1
    59    23    56 1
    60    24    57 1
    61    24    58 1
    62    25    59 1
    63    26    60 1
    64    27    61 1
    65    27    62 1
    66    28    63 1
    67    29    64 1
    68     5    65 1
@<TRIPOS>SUBSTRUCTURE
     1 9N9         1 TEMP              0 ****  ****    0 ROOT
