@<TRIPOS>MOLECULE
molecule
   72    76     1     0     0
SMALL
bcc


@<TRIPOS>ATOM
      1 N3           0.0000     0.0000     0.0000 nc         1 9NA      -0.579100
      2 C4           1.7720     0.0020    -1.3440 ca         1 9NA      -0.084200
      3 C5          -1.8640     0.0020    -1.6290 ca         1 9NA      -0.275200
      4 C6           1.3560     0.0000     0.0000 ca         1 9NA       0.114400
      5 C7          -0.3150     1.1560    -4.0250 c          1 9NA       0.636100
      6 C8          -2.8710     0.1140    -0.6600 ca         1 9NA       0.740600
      7 C10          0.5400     0.0030    -3.5680 c3         1 9NA      -0.018000
      8 C15          3.6550     0.0020     0.6960 ca         1 9NA       0.083900
      9 C17         -4.5160     0.0090    -2.2800 ca         1 9NA       0.713600
     10 C20         -3.5730    -0.1110    -3.2950 ca         1 9NA      -0.317300
     11 C22         -1.2400     2.5610    -5.7870 c3         1 9NA       0.108700
     12 C26         -1.6680     4.7290    -7.7110 c3         1 9NA       0.145100
     13 C28         -1.8340     2.2960    -7.1720 c3         1 9NA      -0.094400
     14 C1          -0.4420     0.0010    -1.2350 cd         1 9NA       0.540400
     15 N2           0.6170     0.0020    -2.1050 na         1 9NA      -0.141300
     16 C12          2.3150     0.0000     1.0180 ca         1 9NA      -0.094000
     17 C14          4.0600     0.0020    -0.6350 ca         1 9NA       0.105900
     18 C11          3.1240     0.0020    -1.6500 ca         1 9NA      -0.151000
     19 F23          5.3770     0.0040    -0.9350 f          1 9NA      -0.129900
     20 F24          4.5810     0.0020     1.6800 f          1 9NA      -0.129900
     21 N13         -0.4950     1.3810    -5.3410 ns         1 9NA      -0.592900
     22 C27         -0.2950     3.7630    -5.8610 c3         1 9NA      -0.094400
     23 C29         -1.0720     4.9950    -6.3270 c3         1 9NA      -0.087900
     24 C30         -2.6120     3.5280    -7.6390 c3         1 9NA      -0.087900
     25 O31         -2.3930     5.8810    -8.1470 oh         1 9NA      -0.602800
     26 C19         -0.0770    -1.3130    -4.0470 c3         1 9NA      -0.115700
     27 C32         -0.3340    -1.2360    -5.5530 c3         1 9NA      -0.092900
     28 C36         -0.9520    -2.5520    -6.0320 c3         1 9NA      -0.076900
     29 C38          0.0100    -3.7040    -5.7370 c3         1 9NA      -0.082400
     30 C37          0.2670    -3.7800    -4.2310 c3         1 9NA      -0.076900
     31 C33          0.8840    -2.4640    -3.7520 c3         1 9NA      -0.092900
     32 N9          -4.1450     0.1140    -1.0130 nb         1 9NA      -0.857000
     33 C16         -2.2290    -0.1160    -2.9750 ca         1 9NA      -0.048000
     34 O25         -5.8350     0.0140    -2.5910 os         1 9NA      -0.439100
     35 C35         -6.7570     0.1410    -1.5070 c3         1 9NA       0.136700
     36 O21         -2.5360     0.2230     0.6490 os         1 9NA      -0.392100
     37 C34         -3.6090     0.3350     1.5860 c3         1 9NA       0.132700
     38 H1           1.5360     0.1060    -3.9810 h1         1 9NA       0.091700
     39 H2          -3.8900    -0.1990    -4.3270 ha         1 9NA       0.150000
     40 H3          -2.0390     2.7750    -5.0880 h1         1 9NA       0.091700
     41 H4          -0.8680     4.5150    -8.4100 h1         1 9NA       0.027700
     42 H6          -2.5050     1.4460    -7.1190 hc         1 9NA       0.048700
     43 H7           2.0060    -0.0010     2.0560 ha         1 9NA       0.165000
     44 H8           3.4460     0.0020    -2.6840 ha         1 9NA       0.141000
     45 H9          -0.0610     0.7810    -6.0140 hn         1 9NA       0.327500
     46 H10          0.1230     3.9510    -4.8800 hc         1 9NA       0.048700
     47 H11          0.5010     3.5520    -6.5650 hc         1 9NA       0.048700
     48 H12         -0.4020     5.8440    -6.3810 hc         1 9NA       0.058200
     49 H13         -1.8710     5.2030    -5.6260 hc         1 9NA       0.058200
     50 H14         -3.0300     3.3400    -8.6210 hc         1 9NA       0.058200
     51 H15         -3.4090     3.7390    -6.9360 hc         1 9NA       0.058200
     52 H16         -2.0180     6.2040    -8.9500 ho         1 9NA       0.402000
     53 H17         -1.0140    -1.4860    -3.5310 hc         1 9NA       0.099700
     54 H18          0.6030    -1.0690    -6.0710 hc         1 9NA       0.052450
     55 H19         -1.0180    -0.4210    -5.7610 hc         1 9NA       0.052450
     56 H20         -1.8870    -2.7220    -5.5110 hc         1 9NA       0.048200
     57 H21         -1.1320    -2.4980    -7.0990 hc         1 9NA       0.048200
     58 H22          0.9460    -3.5310    -6.2540 hc         1 9NA       0.044700
     59 H23         -0.4290    -4.6350    -6.0750 hc         1 9NA       0.044700
     60 H24          0.9510    -4.5950    -4.0240 hc         1 9NA       0.048200
     61 H25         -0.6700    -3.9480    -3.7140 hc         1 9NA       0.048200
     62 H26          1.8190    -2.2950    -4.2720 hc         1 9NA       0.052450
     63 H27          1.0630    -2.5190    -2.6850 hc         1 9NA       0.052450
     64 H28         -1.4750    -0.2070    -3.7480 ha         1 9NA       0.175000
     65 H29         -6.6250    -0.6880    -0.8220 h1         1 9NA       0.047367
     66 H30         -7.7700     0.1330    -1.8910 h1         1 9NA       0.047367
     67 H31         -6.5760     1.0730    -0.9850 h1         1 9NA       0.047367
     68 H32         -4.2400    -0.5430     1.5190 h1         1 9NA       0.045700
     69 H33         -4.1950     1.2180     1.3610 h1         1 9NA       0.045700
     70 H34         -3.2060     0.4150     2.5880 h1         1 9NA       0.045700
     71 O18         -0.8430     1.8810    -3.2090 o          1 9NA      -0.575100
     72 H5          -1.0350     2.0880    -7.8730 hc         1 9NA       0.048700
@<TRIPOS>BOND
     1    37    36 1
     2    25    12 1
     3    24    12 1
     4    24    13 1
     5    12    23 1
     6    13    11 1
     7    36     6 1
     8    32     6 ar
     9    32     9 ar
    10     6     3 ar
    11    35    34 1
    12    23    22 1
    13    16     4 ar
    14    16     8 ar
    15     1     4 1
    16     1    14 2
    17    20     8 1
    18    22    11 1
    19    34     9 1
    20     4     2 ar
    21     9    10 ar
    22    11    21 1
    23     8    17 ar
    24     3    14 1
    25     3    33 ar
    26    14    15 1
    27    21     5 1
    28    10    33 ar
    29     2    15 1
    30     2    18 ar
    31    17    18 ar
    32    17    19 1
    33    15     7 1
    34     5     7 1
    35     5    71 2
    36     7    26 1
    37    26    27 1
    38    26    31 1
    39    27    28 1
    40    31    30 1
    41    28    29 1
    42    30    29 1
    43     7    38 1
    44    10    39 1
    45    11    40 1
    46    12    41 1
    47    13    72 1
    48    13    42 1
    49    16    43 1
    50    18    44 1
    51    21    45 1
    52    22    46 1
    53    22    47 1
    54    23    48 1
    55    23    49 1
    56    24    50 1
    57    24    51 1
    58    25    52 1
    59    26    53 1
    60    27    54 1
    61    27    55 1
    62    28    56 1
    63    28    57 1
    64    29    58 1
    65    29    59 1
    66    30    60 1
    67    30    61 1
    68    31    62 1
    69    31    63 1
    70    33    64 1
    71    35    65 1
    72    35    66 1
    73    35    67 1
    74    37    68 1
    75    37    69 1
    76    37    70 1
@<TRIPOS>SUBSTRUCTURE
     1 9NA         1 TEMP              0 ****  ****    0 ROOT
