@<TRIPOS>MOLECULE
9NB
   25    25     1     0     0
SMALL
bcc


@<TRIPOS>ATOM
      1 SAD          0.0000     0.0000     0.0000 sh         1 9NB      -0.334900
      2 CAI          1.8140     0.0000     0.0000 c3         1 9NB       0.015700
      3 CAL          2.3160     0.0000     1.4220 c          1 9NB       0.577100
      4 OAC          1.5280     0.0010     2.3430 o          1 9NB      -0.587100
      5 NAJ          3.6410     0.0010     1.6680 ns         1 9NB      -0.036100
      6 CAM          4.1060     0.0980     2.9780 ca         1 9NB      -0.064400
      7 CAE          3.4000    -0.5120     4.0110 ca         1 9NB      -0.136500
      8 CAG          3.8560    -0.4230     5.3010 ca         1 9NB      -0.030000
      9 CAN          5.0350     0.2810     5.5790 ca         1 9NB      -0.203600
     10 CAK          5.5280     0.3780     6.9580 c          1 9NB       0.625700
     11 OAB          4.9140    -0.1530     7.8600 o          1 9NB      -0.560100
     12 CAA          6.7960     1.1360     7.2530 c3         1 9NB      -0.092100
     13 CAH          5.7410     0.8910     4.5350 ca         1 9NB      -0.030000
     14 CAF          5.2780     0.7990     3.2490 ca         1 9NB      -0.136500
     15 H1          -0.4430     0.0000    -1.2520 hs         1 9NB       0.172800
     16 H2           2.1750     0.8850    -0.5110 h1         1 9NB       0.041700
     17 H3           2.1750    -0.8850    -0.5110 h1         1 9NB       0.041700
     18 H4           4.2900    -0.1010     0.9130 hn         1 9NB       0.167500
     19 H5           2.4890    -1.0570     3.7960 ha         1 9NB       0.129000
     20 H6           3.3060    -0.8980     6.1050 ha         1 9NB       0.117000
     21 H7           6.9990     1.0990     8.3160 hc         1 9NB       0.025367
     22 H8           6.6800     2.1680     6.9430 hc         1 9NB       0.025367
     23 H9           7.6200     0.6860     6.7120 hc         1 9NB       0.025367
     24 H10          6.6530     1.4370     4.7440 ha         1 9NB       0.117000
     25 H11          5.8240     1.2710     2.4410 ha         1 9NB       0.129000
@<TRIPOS>BOND
     1     1     2 1   
     2     1    15 1   
     3     2     3 1   
     4     2    16 1   
     5     2    17 1   
     6     3     4 2   
     7     3     5 1   
     8     5     6 1   
     9     5    18 1   
    10     6     7 ar  
    11     6    14 ar  
    12     7     8 ar  
    13     7    19 1   
    14     8     9 ar  
    15     8    20 1   
    16     9    10 1   
    17     9    13 ar  
    18    10    11 2   
    19    10    12 1   
    20    12    21 1   
    21    12    22 1   
    22    12    23 1   
    23    13    14 ar  
    24    13    24 1   
    25    14    25 1   
@<TRIPOS>SUBSTRUCTURE
     1 9NB         1 TEMP              0 ****  ****    0 ROOT
