@<TRIPOS>MOLECULE
molecule
   25    25     1     0     0
SMALL
bcc


@<TRIPOS>ATOM
      1 SAD          0.0000     0.0000     0.0000 sh         1 9NB      -0.327900
      2 CAI          1.8140     0.0000     0.0000 c3         1 9NB      -0.061300
      3 CAL          2.3160     0.0000     1.4220 c          1 9NB       0.675100
      4 OAC          1.5280     0.0010     2.3430 o          1 9NB      -0.554100
      5 NAJ          3.6410     0.0010     1.6680 ns         1 9NB      -0.479100
      6 CAM          4.1060     0.0980     2.9780 ca         1 9NB       0.081600
      7 CAE          3.4000    -0.5120     4.0110 ca         1 9NB      -0.160500
      8 CAG          3.8560    -0.4230     5.3010 ca         1 9NB      -0.062000
      9 CAN          5.0350     0.2810     5.5790 ca         1 9NB      -0.197600
     10 CAK          5.5280     0.3780     6.9580 c          1 9NB       0.576700
     11 OAB          4.9140    -0.1530     7.8600 o          1 9NB      -0.529100
     12 CAA          6.7960     1.1360     7.2530 c3         1 9NB      -0.192100
     13 CAH          5.7410     0.8910     4.5350 ca         1 9NB      -0.062000
     14 CAF          5.2780     0.7990     3.2490 ca         1 9NB      -0.160500
     15 H1          -0.4430     0.0000    -1.2520 hs         1 9NB       0.197800
     16 H2           2.1750     0.8850    -0.5110 h1         1 9NB       0.074200
     17 H3           2.1750    -0.8850    -0.5110 h1         1 9NB       0.074200
     18 H4           4.2900    -0.1010     0.9130 hn         1 9NB       0.325500
     19 H5           2.4890    -1.0570     3.7960 ha         1 9NB       0.152000
     20 H6           3.3060    -0.8980     6.1050 ha         1 9NB       0.147000
     21 H7           6.9990     1.0990     8.3160 hc         1 9NB       0.060700
     22 H8           6.6800     2.1680     6.9430 hc         1 9NB       0.060700
     23 H9           7.6200     0.6860     6.7120 hc         1 9NB       0.060700
     24 H10          6.6530     1.4370     4.7440 ha         1 9NB       0.147000
     25 H11          5.8240     1.2710     2.4410 ha         1 9NB       0.152000
@<TRIPOS>BOND
     1    12    10 1
     2    10    11 2
     3    10     9 1
     4     8     9 ar
     5     8     7 ar
     6     9    13 ar
     7     7     6 ar
     8    13    14 ar
     9     6    14 ar
    10     6     5 1
    11     5     3 1
    12     1     2 1
    13     3     4 2
    14     3     2 1
    15     1    15 1
    16     2    16 1
    17     2    17 1
    18     5    18 1
    19     7    19 1
    20     8    20 1
    21    12    21 1
    22    12    22 1
    23    12    23 1
    24    13    24 1
    25    14    25 1
@<TRIPOS>SUBSTRUCTURE
     1 9NB         1 TEMP              0 ****  ****    0 ROOT
