@<TRIPOS>MOLECULE
9ND
   58    62     1     0     0
SMALL
bcc


@<TRIPOS>ATOM
      1 N1           0.0000     0.0000     0.0000 na         1 9ND       0.350700
      2 N3           0.6400     0.0010     2.0960 nc         1 9ND      -0.505100
      3 C4           1.3820     0.0000     0.0000 ca         1 9ND      -0.240200
      4 C5           1.7730     0.0000     1.3510 ca         1 9ND       0.078400
      5 C6          -1.6350    -1.2970    -1.2380 c          1 9ND       0.546100
      6 C7          -0.8690    -0.0010    -1.1800 c3         1 9ND      -0.146000
      7 C8           2.3430    -0.0010    -1.0000 ca         1 9ND      -0.159000
      8 C13          4.0760     0.0020     0.6680 ca         1 9ND       0.063900
      9 C15         -0.0170     0.1460    -2.4420 c3         1 9ND      -0.072700
     10 C17         -2.8110     0.5370     0.9500 ca         1 9ND      -0.085500
     11 C20         -3.3770    -2.6360    -2.1540 ca         1 9ND      -0.101400
     12 C21         -4.4490    -0.0100     2.6110 ca         1 9ND      -0.029600
     13 C22         -4.1230     0.5280     1.3780 ca         1 9ND      -0.096000
     14 C26          0.6620     1.5170    -2.4420 c3         1 9ND      -0.065900
     15 C28         -3.8730    -3.1250    -3.3540 ca         1 9ND      -0.113500
     16 F19          5.3900     0.0020     0.9800 f          1 9ND      -0.117900
     17 C9           3.1350     0.0050     1.6740 ca         1 9ND      -0.048000
     18 C2          -0.4050    -0.0040     1.3080 cd         1 9ND       0.306400
     19 C12         -1.8130    -0.0050     1.7610 ca         1 9ND      -0.086900
     20 C16         -2.1470    -0.5460     3.0040 ca         1 9ND      -0.085500
     21 C23         -3.4620    -0.5440     3.4220 ca         1 9ND      -0.096000
     22 C25         -0.9090     0.0180    -3.6780 c3         1 9ND      -0.065900
     23 C29         -0.0560     0.1640    -4.9400 c3         1 9ND      -0.020400
     24 C33          0.6230     1.5350    -4.9400 c3         1 9ND      -0.027400
     25 C30          1.5150     1.6630    -3.7040 c3         1 9ND      -0.020400
     26 O14         -1.3570    -2.2000    -0.4790 o          1 9ND      -0.606100
     27 N10         -2.6300    -1.4520    -2.1350 ns         1 9ND      -0.043100
     28 C27         -3.6260    -3.3200    -0.9720 ca         1 9ND      -0.113500
     29 C31         -4.3630    -4.4870    -0.9930 ca         1 9ND      -0.081500
     30 C34         -4.8520    -4.9750    -2.1900 ca         1 9ND      -0.107000
     31 C32         -4.6100    -4.2930    -3.3690 ca         1 9ND      -0.081500
     32 C11          3.6830    -0.0020    -0.6670 ca         1 9ND       0.092900
     33 F18          4.6180    -0.0050    -1.6420 f          1 9ND      -0.118900
     34 H1          -1.5650     0.8270    -1.1160 h1         1 9ND       0.068700
     35 H2           2.0430    -0.0050    -2.0410 ha         1 9ND       0.166000
     36 H3           0.7400    -0.6290    -2.4640 hc         1 9ND       0.072700
     37 H4          -2.5570     0.9580    -0.0150 ha         1 9ND       0.120000
     38 H5          -4.8990     0.9470     0.7480 ha         1 9ND       0.116500
     39 H6          -0.0930     2.2930    -2.4270 hc         1 9ND       0.033950
     40 H7           1.2960     1.6050    -1.5680 hc         1 9ND       0.033950
     41 H8          -3.6840    -2.5920    -4.2780 ha         1 9ND       0.123500
     42 H9           3.4460    -0.0730     2.7080 ha         1 9ND       0.131000
     43 H10         -1.3760    -0.9670     3.6380 ha         1 9ND       0.120000
     44 H11         -3.7230    -0.9640     4.3860 ha         1 9ND       0.116500
     45 H12         -1.6620     0.7970    -3.6610 hc         1 9ND       0.033950
     46 H13         -1.3870    -0.9540    -3.6780 hc         1 9ND       0.033950
     47 H14          0.7000    -0.6120    -4.9550 hc         1 9ND       0.021450
     48 H15         -0.6890     0.0760    -5.8140 hc         1 9ND       0.021450
     49 H16         -0.1330     2.3110    -4.9200 hc         1 9ND       0.018200
     50 H17          1.2280     1.6370    -5.8330 hc         1 9ND       0.018200
     51 H18          2.2680     0.8840    -3.7220 hc         1 9ND       0.021450
     52 H19          1.9940     2.6350    -3.7050 hc         1 9ND       0.021450
     53 H20         -2.8690    -0.7000    -2.7500 hn         1 9ND       0.185500
     54 H21         -3.2410    -2.9380    -0.0330 ha         1 9ND       0.123500
     55 H22         -4.5560    -5.0220    -0.0710 ha         1 9ND       0.105500
     56 H23         -5.4300    -5.8910    -2.2050 ha         1 9ND       0.105000
     57 H24         -4.9960    -4.6780    -4.3050 ha         1 9ND       0.105500
     58 Cl24        -6.1020    -0.0170     3.1420 cl         1 9ND      -0.021400
@<TRIPOS>BOND
     1     1     3 1   
     2     1     6 1   
     3     1    18 1   
     4     2     4 1   
     5     2    18 2   
     6     3     4 ar  
     7     3     7 ar  
     8     4    17 ar  
     9     5     6 1   
    10     5    26 2   
    11     5    27 1   
    12     6     9 1   
    13     6    34 1   
    14     7    32 ar  
    15     7    35 1   
    16     8    16 1   
    17     8    17 ar  
    18     8    32 ar  
    19     9    14 1   
    20     9    22 1   
    21     9    36 1   
    22    10    13 ar  
    23    10    19 ar  
    24    10    37 1   
    25    11    15 ar  
    26    11    27 1   
    27    11    28 ar  
    28    12    13 ar  
    29    12    21 ar  
    30    12    58 1   
    31    13    38 1   
    32    14    25 1   
    33    14    39 1   
    34    14    40 1   
    35    15    31 ar  
    36    15    41 1   
    37    17    42 1   
    38    18    19 1   
    39    19    20 ar  
    40    20    21 ar  
    41    20    43 1   
    42    21    44 1   
    43    22    23 1   
    44    22    45 1   
    45    22    46 1   
    46    23    24 1   
    47    23    47 1   
    48    23    48 1   
    49    24    25 1   
    50    24    49 1   
    51    24    50 1   
    52    25    51 1   
    53    25    52 1   
    54    27    53 1   
    55    28    29 ar  
    56    28    54 1   
    57    29    30 ar  
    58    29    55 1   
    59    30    31 ar  
    60    30    56 1   
    61    31    57 1   
    62    32    33 1   
@<TRIPOS>SUBSTRUCTURE
     1 9ND         1 TEMP              0 ****  ****    0 ROOT
