@<TRIPOS>MOLECULE
9NG
   59    63     1     0     0
SMALL
bcc


@<TRIPOS>ATOM
      1 C4           0.0000     0.0000     0.0000 c3         1 9NG      -0.065400
      2 C5           1.5110     0.0000     0.0000 ca         1 9NG      -0.140300
      3 C6           1.9020     0.0000     1.3330 ca         1 9NG      -0.078400
      4 C7          -4.5320    -1.8530    -3.3040 cc         1 9NG      -0.051600
      5 C15         -4.2280    -3.5100    -0.0390 c3         1 9NG      -0.035100
      6 C20          3.2620    -0.0010     1.6370 ca         1 9NG      -0.124000
      7 C21          0.9170     4.0320     5.0510 ca         1 9NG      -0.132500
      8 C24         -2.8310    -3.5900    -0.6580 c3         1 9NG       0.221800
      9 C26         -4.9290    -0.5900    -3.4590 cd         1 9NG       0.007000
     10 C28         -6.2930    -0.4230    -3.6250 cd         1 9NG      -0.163000
     11 C31          3.7970     0.0000    -0.7000 ca         1 9NG       0.006100
     12 C33          4.1990    -0.0000     0.6250 ca         1 9NG      -0.050000
     13 N2           0.7810     0.0000     2.1640 n          1 9NG       0.025000
     14 C32          0.8730     1.4210     4.1300 ca         1 9NG      -0.113300
     15 C34         -0.3140     2.0710     4.4150 ca         1 9NG      -0.082000
     16 C30         -0.2990     3.3710     4.8750 ca         1 9NG      -0.073000
     17 C29          2.1110     3.3710     4.7610 ca         1 9NG      -0.073000
     18 C35          2.0830     2.0700     4.3020 ca         1 9NG      -0.082000
     19 C12          0.9390     5.4290     5.5390 cc         1 9NG       0.303000
     20 N11          2.0410     6.1900     5.7540 na         1 9NG       0.290600
     21 N8           1.5520     7.4270     6.2080 nc         1 9NG      -0.396800
     22 N10          0.2660     7.3340     6.2330 nd         1 9NG       0.036000
     23 N13         -0.1060     6.1710     5.8380 nd         1 9NG      -0.388000
     24 C3          -0.3680     0.0000     1.4680 c          1 9NG       0.627500
     25 O22         -1.4900    -0.0000     1.9310 o          1 9NG      -0.652500
     26 N9          -2.5740    -2.3790    -1.4420 n3         1 9NG      -0.519500
     27 C14         -0.5360    -1.2580    -0.6870 c3         1 9NG      -0.030400
     28 S1          -2.8640    -2.3720    -3.0730 sy         1 9NG       1.072200
     29 O18         -2.8030    -3.7270    -3.4970 o          1 9NG      -0.579300
     30 O19         -2.0460    -1.3490    -3.6220 o          1 9NG      -0.579300
     31 C27         -7.0040    -1.5510    -3.6030 cc         1 9NG       0.044900
     32 S16         -5.9280    -2.9210    -3.3570 ss         1 9NG      -0.194800
     33 C23          2.4470    -0.0010    -1.0090 ca         1 9NG      -0.017000
     34 H1          -0.3770     0.8930    -0.4830 hc         1 9NG       0.067700
     35 H2          -4.5790    -2.4860    -0.0730 hc         1 9NG       0.012033
     36 H3          -4.1860    -3.8440     0.9910 hc         1 9NG       0.012033
     37 H4          -4.9060    -4.1440    -0.5970 hc         1 9NG       0.012033
     38 H5           1.7510    -0.5110     3.9470 h1         1 9NG       0.040700
     39 H6          -0.0160    -0.5110     4.0300 h1         1 9NG       0.040700
     40 H7           3.5850    -0.0010     2.6710 ha         1 9NG       0.111000
     41 H8          -2.0920    -3.6740     0.1300 h1         1 9NG       0.030700
     42 H9          -2.7710    -4.4580    -1.3030 h1         1 9NG       0.030700
     43 H10         -4.2360     0.2430    -3.4560 ha         1 9NG       0.130000
     44 H11         -6.7490     0.5510    -3.7630 ha         1 9NG       0.126000
     45 H12          5.2540    -0.0030     0.8670 ha         1 9NG       0.117000
     46 H13         -1.2580     1.5570     4.2780 ha         1 9NG       0.120000
     47 H14         -1.2300     3.8780     5.0980 ha         1 9NG       0.115000
     48 H15          3.0590     3.8790     4.8950 ha         1 9NG       0.115000
     49 H16          3.0090     1.5560     4.0760 ha         1 9NG       0.120000
     50 H17          2.9970     5.9260     5.6190 hn         1 9NG       0.173700
     51 H18         -2.4830    -1.1000     0.2110 h1         1 9NG       0.036200
     52 H19         -2.3390    -0.3020    -1.3620 h1         1 9NG       0.036200
     53 H20         -0.2580    -2.1310    -0.1100 hc         1 9NG       0.032700
     54 H21         -0.1140    -1.3340    -1.6820 hc         1 9NG       0.032700
     55 H22         -8.0790    -1.6140    -3.7160 h4         1 9NG       0.147000
     56 H23          2.1290     0.0550    -2.0430 ha         1 9NG       0.126000
     57 C17          0.8500    -0.0000     3.6280 c3         1 9NG       0.097300
     58 Br36         5.0870     0.0010    -2.0820 br         1 9NG      -0.113100
     59 C25         -2.0610    -1.1750    -0.7840 c3         1 9NG       0.218800
@<TRIPOS>BOND
     1     1     2 1   
     2     1    24 1   
     3     1    27 1   
     4     1    34 1   
     5     2     3 ar  
     6     2    33 ar  
     7     3     6 ar  
     8     3    13 1   
     9     4     9 2   
    10     4    28 1   
    11     4    32 1   
    12     5     8 1   
    13     5    35 1   
    14     5    36 1   
    15     5    37 1   
    16     6    12 ar  
    17     6    40 1   
    18     7    16 ar  
    19     7    17 ar  
    20     7    19 1   
    21     8    26 1   
    22     8    41 1   
    23     8    42 1   
    24     9    10 1   
    25     9    43 1   
    26    10    31 2   
    27    10    44 1   
    28    11    12 ar  
    29    11    33 ar  
    30    11    58 1   
    31    12    45 1   
    32    13    24 1   
    33    13    57 1   
    34    14    15 ar  
    35    14    18 ar  
    36    14    57 1   
    37    15    16 ar  
    38    15    46 1   
    39    16    47 1   
    40    17    18 ar  
    41    17    48 1   
    42    18    49 1   
    43    19    20 1   
    44    19    23 2   
    45    20    21 1   
    46    20    50 1   
    47    21    22 2   
    48    22    23 1   
    49    24    25 2   
    50    26    28 1   
    51    26    59 1   
    52    27    53 1   
    53    27    54 1   
    54    27    59 1   
    55    28    29 2   
    56    28    30 2   
    57    31    32 1   
    58    31    55 1   
    59    33    56 1   
    60    38    57 1   
    61    39    57 1   
    62    51    59 1   
    63    52    59 1   
@<TRIPOS>SUBSTRUCTURE
     1 9NG         1 TEMP              0 ****  ****    0 ROOT
