@<TRIPOS>MOLECULE
9NH
   74    78     1     0     0
SMALL
bcc


@<TRIPOS>ATOM
      1 C1           0.0000     0.0000     0.0000 c3         1 9NH       0.144800
      2 C2          -1.8590    -2.5040     2.9610 ca         1 9NH      -0.131000
      3 C3           1.9930     0.0000     1.3730 c3         1 9NH       0.144800
      4 N6          -7.2670    -7.6570     2.2370 ns         1 9NH      -0.048100
      5 C7         -10.8740   -14.2360     2.4980 ca         1 9NH      -0.071000
      6 C8         -11.2130   -15.5120     2.9070 ca         1 9NH      -0.093000
      7 C9         -12.5430   -15.8580     3.0680 ca         1 9NH      -0.048000
      8 C10        -13.5360   -14.9290     2.8220 ca         1 9NH      -0.221300
      9 C11        -13.2040   -13.6500     2.4130 ca         1 9NH       0.118900
     10 C12         -8.7920    -9.5250     2.2110 ca         1 9NH      -0.035000
     11 C13         -8.4990    -8.2130     1.8760 ca         1 9NH      -0.092400
     12 C14        -14.9830   -15.3110     2.9990 c3         1 9NH       0.650200
     13 C15         -9.4280    -7.4490     1.1800 ca         1 9NH      -0.096300
     14 C16         -9.1060    -6.0230     0.8150 c3         1 9NH       0.060200
     15 C19         -4.7800    -7.7590     5.0100 ca         1 9NH       0.761600
     16 C20         -3.1500    -6.1820     4.6010 ca         1 9NH       0.754900
     17 C21         -4.5870    -9.0570     6.9870 c3         1 9NH       0.244700
     18 C22        -10.6470    -7.9950     0.8200 ca         1 9NH      -0.091000
     19 C24        -10.0200   -10.0770     1.8450 ca         1 9NH      -0.155600
     20 C30          0.3870    -3.2210     3.4420 ca         1 9NH      -0.131000
     21 C31         -1.4800    -4.4770     4.2720 ca         1 9NH      -0.041400
     22 C23        -10.9490    -9.3000     1.1490 ca         1 9NH      -0.095000
     23 C25        -10.3410   -11.4750     2.1990 c          1 9NH       0.593700
     24 N3         -11.5270   -12.0060     1.8420 ns         1 9NH      -0.026100
     25 C26        -11.8680   -13.2990     2.2550 ca         1 9NH      -0.110400
     26 F1         -15.0670   -16.6440     3.4150 f          1 9NH      -0.206300
     27 F3         -15.5690   -14.4840     3.9650 f          1 9NH      -0.206300
     28 F2         -15.6590   -15.1580     1.7840 f          1 9NH      -0.206300
     29 N1          -3.7240    -5.8000     3.4660 nb         1 9NH      -0.727000
     30 C17         -4.8460    -6.3580     3.0500 ca         1 9NH       0.535200
     31 C18         -5.4220    -7.3780     3.8160 ca         1 9NH      -0.511200
     32 N4          -3.6610    -7.1400     5.3600 nb         1 9NH      -0.789000
     33 N7          -1.9820    -5.5620     5.0010 nu         1 9NH      -0.260300
     34 O2          -9.5330   -12.1480     2.8120 o          1 9NH      -0.629100
     35 O3          -5.2980    -8.7360     5.7890 os         1 9NH      -0.371100
     36 C28         -2.3540    -3.5780     3.6740 ca         1 9NH      -0.085000
     37 C29         -0.4870    -2.3250     2.8390 ca         1 9NH       0.017600
     38 C5          -0.1080    -4.2910     4.1590 ca         1 9NH      -0.085000
     39 N2           1.4690     0.0000     0.0000 n7         1 9NH      -0.584200
     40 C4           1.4860    -1.2410     2.1100 c3         1 9NH       0.136300
     41 N5           0.0150    -1.2410     2.1110 nh         1 9NH      -0.364000
     42 C6          -0.5080    -1.2410     0.7380 c3         1 9NH       0.136300
     43 H11         -0.3600     0.8900     0.5020 h1         1 9NH       0.012200
     44 H12         -0.3600    -0.0160    -1.0220 h1         1 9NH       0.012200
     45 H21         -2.5410    -1.8040     2.4930 ha         1 9NH       0.119500
     46 H31          1.6520     0.8900     1.8890 h1         1 9NH       0.012200
     47 H32          3.0760    -0.0150     1.3450 h1         1 9NH       0.012200
     48 H61N        -6.8090    -7.0150     1.6220 hn         1 9NH       0.173500
     49 H71         -9.8320   -13.9660     2.3740 ha         1 9NH       0.170000
     50 H81        -10.4360   -16.2430     3.0980 ha         1 9NH       0.115000
     51 H91        -12.8060   -16.8590     3.3880 ha         1 9NH       0.125000
     52 H121        -8.0680   -10.1230     2.7510 ha         1 9NH       0.173000
     53 H161        -8.2830    -6.0070     0.1110 hc         1 9NH       0.010367
     54 H162        -8.8290    -5.4760     1.7070 hc         1 9NH       0.010367
     55 H163        -9.9760    -5.5610     0.3640 hc         1 9NH       0.010367
     56 H211        -5.1070    -9.8480     7.5140 h1         1 9NH       0.003367
     57 H212        -4.5300    -8.1790     7.6190 h1         1 9NH       0.003367
     58 H213        -3.5870    -9.3870     6.7360 h1         1 9NH       0.003367
     59 H221       -11.3680    -7.3940     0.2790 ha         1 9NH       0.110000
     60 H301         1.4570    -3.0780     3.3510 ha         1 9NH       0.119500
     61 H231       -11.9040    -9.7240     0.8640 ha         1 9NH       0.102000
     62 H31N       -12.2030   -11.4400     1.3680 hn         1 9NH       0.183500
     63 H171        -5.3080    -6.0380     2.1240 h4         1 9NH      -0.022900
     64 H71N        -1.5090    -5.8720     5.8260 hn         1 9NH       0.293800
     65 H281        -3.4240    -3.7180     3.7690 ha         1 9NH       0.118000
     66 H51          0.5730    -4.9900     4.6290 ha         1 9NH       0.118000
     67 H21N         1.8030     0.8100    -0.4840 hn         1 9NH       0.254800
     68 H41          1.8460    -2.1300     1.6080 h1         1 9NH       0.024200
     69 H42          1.8460    -1.2250     3.1320 h1         1 9NH       0.024200
     70 H61         -0.1680    -2.1310     0.2230 h1         1 9NH       0.024200
     71 H62         -1.5910    -1.2250     0.7650 h1         1 9NH       0.024200
     72 C27         -6.6680    -8.0360     3.3840 c          1 9NH       0.611700
     73 F4         -14.1750   -12.7430     2.1730 f          1 9NH      -0.119900
     74 O1          -7.1540    -8.9210     4.0610 o          1 9NH      -0.614100
@<TRIPOS>BOND
     1     1    39 1   
     2     1    42 1   
     3     1    43 1   
     4     1    44 1   
     5     2    36 ar  
     6     2    37 ar  
     7     2    45 1   
     8     3    39 1   
     9     3    40 1   
    10     3    46 1   
    11     3    47 1   
    12     4    11 1   
    13     4    48 1   
    14     4    72 1   
    15     5     6 ar  
    16     5    25 ar  
    17     5    49 1   
    18     6     7 ar  
    19     6    50 1   
    20     7     8 ar  
    21     7    51 1   
    22     8     9 ar  
    23     8    12 1   
    24     9    25 ar  
    25     9    73 1   
    26    10    11 ar  
    27    10    19 ar  
    28    10    52 1   
    29    11    13 ar  
    30    12    26 1   
    31    12    27 1   
    32    12    28 1   
    33    13    14 1   
    34    13    18 ar  
    35    14    53 1   
    36    14    54 1   
    37    14    55 1   
    38    15    31 ar  
    39    15    32 ar  
    40    15    35 1   
    41    16    29 ar  
    42    16    32 ar  
    43    16    33 1   
    44    17    35 1   
    45    17    56 1   
    46    17    57 1   
    47    17    58 1   
    48    18    22 ar  
    49    18    59 1   
    50    19    22 ar  
    51    19    23 1   
    52    20    37 ar  
    53    20    38 ar  
    54    20    60 1   
    55    21    33 1   
    56    21    36 ar  
    57    21    38 ar  
    58    22    61 1   
    59    23    24 1   
    60    23    34 2   
    61    24    25 1   
    62    24    62 1   
    63    29    30 ar  
    64    30    31 ar  
    65    30    63 1   
    66    31    72 1   
    67    33    64 1   
    68    36    65 1   
    69    37    41 1   
    70    38    66 1   
    71    39    67 1   
    72    40    41 1   
    73    40    68 1   
    74    40    69 1   
    75    41    42 1   
    76    42    70 1   
    77    42    71 1   
    78    72    74 2   
@<TRIPOS>SUBSTRUCTURE
     1 9NH         1 TEMP              0 ****  ****    0 ROOT
