@<TRIPOS>MOLECULE
molecule
   74    78     1     0     0
SMALL
bcc


@<TRIPOS>ATOM
      1 C1           0.0000     0.0000     0.0000 c3         1 9NH       0.155300
      2 C2          -1.8590    -2.5040     2.9610 ca         1 9NH      -0.152000
      3 C3           1.9930     0.0000     1.3730 c3         1 9NH       0.155300
      4 N6          -7.2670    -7.6570     2.2370 ns         1 9NH      -0.482100
      5 C7         -10.8740   -14.2360     2.4980 ca         1 9NH      -0.091000
      6 C8         -11.2130   -15.5120     2.9070 ca         1 9NH      -0.129000
      7 C9         -12.5430   -15.8580     3.0680 ca         1 9NH      -0.085000
      8 C10        -13.5360   -14.9290     2.8220 ca         1 9NH      -0.202300
      9 C11        -13.2040   -13.6500     2.4130 ca         1 9NH       0.133900
     10 C12         -8.7920    -9.5250     2.2110 ca         1 9NH      -0.062000
     11 C13         -8.4990    -8.2130     1.8760 ca         1 9NH       0.051600
     12 C14        -14.9830   -15.3110     2.9990 c3         1 9NH       0.681200
     13 C15         -9.4280    -7.4490     1.1800 ca         1 9NH      -0.090300
     14 C16         -9.1060    -6.0230     0.8150 c3         1 9NH      -0.050800
     15 C19         -4.7800    -7.7590     5.0100 ca         1 9NH       0.781600
     16 C20         -3.1500    -6.1820     4.6010 ca         1 9NH       0.990900
     17 C21         -4.5870    -9.0570     6.9870 c3         1 9NH       0.128700
     18 C22        -10.6470    -7.9950     0.8200 ca         1 9NH      -0.120000
     19 C24        -10.0200   -10.0770     1.8450 ca         1 9NH      -0.143600
     20 C30          0.3870    -3.2210     3.4420 ca         1 9NH      -0.152000
     21 C31         -1.4800    -4.4770     4.2720 ca         1 9NH       0.122600
     22 C23        -10.9490    -9.3000     1.1490 ca         1 9NH      -0.118000
     23 C25        -10.3410   -11.4750     2.1990 c          1 9NH       0.682700
     24 N3         -11.5270   -12.0060     1.8420 ns         1 9NH      -0.466100
     25 C26        -11.8680   -13.2990     2.2550 ca         1 9NH       0.026600
     26 F1         -15.0670   -16.6440     3.4150 f          1 9NH      -0.220300
     27 F3         -15.5690   -14.4840     3.9650 f          1 9NH      -0.220300
     28 F2         -15.6590   -15.1580     1.7840 f          1 9NH      -0.220300
     29 N1          -3.7240    -5.8000     3.4660 nb         1 9NH      -0.817000
     30 C17         -4.8460    -6.3580     3.0500 ca         1 9NH       0.541200
     31 C18         -5.4220    -7.3780     3.8160 ca         1 9NH      -0.481200
     32 N4          -3.6610    -7.1400     5.3600 nb         1 9NH      -0.882000
     33 N7          -1.9820    -5.5620     5.0010 nu         1 9NH      -0.740300
     34 O2          -9.5330   -12.1480     2.8120 o          1 9NH      -0.590100
     35 O3          -5.2980    -8.7360     5.7890 os         1 9NH      -0.384100
     36 C28         -2.3540    -3.5780     3.6740 ca         1 9NH      -0.115000
     37 C29         -0.4870    -2.3250     2.8390 ca         1 9NH       0.094600
     38 C5          -0.1080    -4.2910     4.1590 ca         1 9NH      -0.115000
     39 N2           1.4690     0.0000     0.0000 n7         1 9NH      -0.821200
     40 C4           1.4860    -1.2410     2.1100 c3         1 9NH       0.165300
     41 N5           0.0150    -1.2410     2.1110 nh         1 9NH      -0.598000
     42 C6          -0.5080    -1.2410     0.7380 c3         1 9NH       0.165300
     43 H11         -0.3600     0.8900     0.5020 h1         1 9NH       0.040950
     44 H12         -0.3600    -0.0160    -1.0220 h1         1 9NH       0.040950
     45 H21         -2.5410    -1.8040     2.4930 ha         1 9NH       0.140000
     46 H31          1.6520     0.8900     1.8890 h1         1 9NH       0.040950
     47 H32          3.0760    -0.0150     1.3450 h1         1 9NH       0.040950
     48 H61N        -6.8090    -7.0150     1.6220 hn         1 9NH       0.321500
     49 H71         -9.8320   -13.9660     2.3740 ha         1 9NH       0.192000
     50 H81        -10.4360   -16.2430     3.0980 ha         1 9NH       0.147000
     51 H91        -12.8060   -16.8590     3.3880 ha         1 9NH       0.155000
     52 H121        -8.0680   -10.1230     2.7510 ha         1 9NH       0.196000
     53 H161        -8.2830    -6.0070     0.1110 hc         1 9NH       0.046367
     54 H162        -8.8290    -5.4760     1.7070 hc         1 9NH       0.046367
     55 H163        -9.9760    -5.5610     0.3640 hc         1 9NH       0.046367
     56 H211        -5.1070    -9.8480     7.5140 h1         1 9NH       0.051367
     57 H212        -4.5300    -8.1790     7.6190 h1         1 9NH       0.051367
     58 H213        -3.5870    -9.3870     6.7360 h1         1 9NH       0.051367
     59 H221       -11.3680    -7.3940     0.2790 ha         1 9NH       0.137000
     60 H301         1.4570    -3.0780     3.3510 ha         1 9NH       0.140000
     61 H231       -11.9040    -9.7240     0.8640 ha         1 9NH       0.125000
     62 H31N       -12.2030   -11.4400     1.3680 hn         1 9NH       0.336500
     63 H171        -5.3080    -6.0380     2.1240 h4         1 9NH       0.026100
     64 H71N        -1.5090    -5.8720     5.8260 hn         1 9NH       0.468800
     65 H281        -3.4240    -3.7180     3.7690 ha         1 9NH       0.144000
     66 H51          0.5730    -4.9900     4.6290 ha         1 9NH       0.144000
     67 H21N         1.8030     0.8100    -0.4840 hn         1 9NH       0.356800
     68 H41          1.8460    -2.1300     1.6080 h1         1 9NH       0.049700
     69 H42          1.8460    -1.2250     3.1320 h1         1 9NH       0.049700
     70 H61         -0.1680    -2.1310     0.2230 h1         1 9NH       0.049700
     71 H62         -1.5910    -1.2250     0.7650 h1         1 9NH       0.049700
     72 C27         -6.6680    -8.0360     3.3840 c          1 9NH       0.690700
     73 F4         -14.1750   -12.7430     2.1730 f          1 9NH      -0.131900
     74 O1          -7.1540    -8.9210     4.0610 o          1 9NH      -0.569100
@<TRIPOS>BOND
     1    26    12 1
     2    28    12 1
     3    27    12 1
     4    12     8 1
     5     8     7 ar
     6     8     9 ar
     7     7     6 ar
     8    73     9 1
     9     9    25 ar
    10     6     5 ar
    11    25     5 ar
    12    25    24 1
    13    34    23 2
    14    24    23 1
    15    23    19 1
    16    74    72 2
    17    30    29 ar
    18    30    31 ar
    19    19    10 ar
    20    19    22 ar
    21    29    16 ar
    22    10    11 ar
    23    72    31 1
    24    72     4 1
    25    22    18 ar
    26    31    15 ar
    27    16    33 1
    28    16    32 ar
    29    11     4 1
    30    11    13 ar
    31    33    21 1
    32    18    13 ar
    33    15    32 ar
    34    15    35 1
    35    13    14 1
    36    21    38 ar
    37    21    36 ar
    38    38    20 ar
    39    35    17 1
    40    36     2 ar
    41    20    37 ar
    42     2    37 ar
    43    37    41 1
    44    40    41 1
    45    40     3 1
    46    41    42 1
    47     3    39 1
    48    42     1 1
    49    39     1 1
    50     1    43 1
    51     1    44 1
    52     2    45 1
    53     3    46 1
    54     3    47 1
    55     4    48 1
    56     5    49 1
    57     6    50 1
    58     7    51 1
    59    10    52 1
    60    14    53 1
    61    14    54 1
    62    14    55 1
    63    17    56 1
    64    17    57 1
    65    17    58 1
    66    18    59 1
    67    20    60 1
    68    22    61 1
    69    24    62 1
    70    30    63 1
    71    33    64 1
    72    36    65 1
    73    38    66 1
    74    39    67 1
    75    40    68 1
    76    40    69 1
    77    42    70 1
    78    42    71 1
@<TRIPOS>SUBSTRUCTURE
     1 9NH         1 TEMP              0 ****  ****    0 ROOT
