@<TRIPOS>MOLECULE
9NJ
   73    77     1     0     0
SMALL
bcc


@<TRIPOS>ATOM
      1 N3           0.0000     0.0000     0.0000 nc         1 9NJ      -0.523100
      2 C4          -1.8650    -0.0020     1.6280 ca         1 9NJ      -0.272200
      3 C5           1.3560     0.0000     0.0000 ca         1 9NJ       0.099400
      4 C6          -0.3120    -1.1570     4.0260 c          1 9NJ       0.549100
      5 C7           1.7710     0.0000     1.3440 ca         1 9NJ      -0.277200
      6 C8          -2.8700    -0.1200     0.6590 ca         1 9NJ       0.697600
      7 C10          0.5380    -0.0010     3.5680 c3         1 9NJ      -0.141000
      8 C13         -2.2300     0.1110     2.9740 ca         1 9NJ      -0.076000
      9 C15         -4.5160    -0.0100     2.2780 ca         1 9NJ       0.674600
     10 C20         -0.0860     1.3120     4.0450 c3         1 9NJ      -0.121700
     11 C21          3.6560     0.0020    -0.6930 ca         1 9NJ       0.077900
     12 C22         -3.4990    -3.5000     6.2550 c3         1 9NJ      -0.001900
     13 C24         -3.5740     0.1060     3.2940 ca         1 9NJ      -0.285300
     14 C26         -1.2290    -2.5660     5.7900 c3         1 9NJ       0.014700
     15 O32         -5.8360    -0.0150     2.5890 os         1 9NJ      -0.424100
     16 O25         -2.5350    -0.2360    -0.6480 os         1 9NJ      -0.382100
     17 C35         -3.6070    -0.3540    -1.5850 c3         1 9NJ       0.244700
     18 N9          -4.1450    -0.1210     1.0120 nb         1 9NJ      -0.753000
     19 C1          -0.4410    -0.0010     1.2350 cd         1 9NJ       0.360400
     20 C14          2.3160     0.0010    -1.0170 ca         1 9NJ      -0.081000
     21 F29          4.5820     0.0030    -1.6750 f          1 9NJ      -0.136900
     22 C27          4.0590     0.0020     0.6360 ca         1 9NJ      -0.138000
     23 C16          3.1240     0.0000     1.6510 ca         1 9NJ      -0.060000
     24 N2           0.6160    -0.0010     2.1050 na         1 9NJ       0.340700
     25 C33         -0.3450     1.2350     5.5510 c3         1 9NJ      -0.051900
     26 C38         -0.9690     2.5480     6.0280 c3         1 9NJ      -0.018900
     27 C39         -0.0120     3.7050     5.7340 c3         1 9NJ      -0.027400
     28 C37          0.2470     3.7820     4.2280 c3         1 9NJ      -0.018900
     29 C34          0.8710     2.4690     3.7510 c3         1 9NJ      -0.051900
     30 N11         -0.4910    -1.3820     5.3430 ns         1 9NJ      -0.210900
     31 C30         -0.7860    -2.9380     7.2060 c3         1 9NJ      -0.050400
     32 C23         -1.5560    -4.1750     7.6730 c3         1 9NJ      -0.001900
     33 C18         -3.0560    -3.8730     7.6710 c3         1 9NJ      -0.157700
     34 C31         -2.7290    -2.2650     5.7880 c3         1 9NJ      -0.050400
     35 C12         -3.8150    -5.0910     8.1310 c          1 9NJ       0.983600
     36 O19         -4.6260    -5.6080     7.4010 o          1 9NJ      -0.896300
     37 O28         -3.5890    -5.6010     9.3520 o          1 9NJ      -0.896300
     38 H1           1.5340    -0.0990     3.9830 h1         1 9NJ       0.062700
     39 H2          -1.4770     0.2020     3.7470 ha         1 9NJ       0.175000
     40 H3          -1.0230     1.4810     3.5280 hc         1 9NJ       0.096700
     41 H6          -3.8910     0.1910     4.3260 ha         1 9NJ       0.134000
     42 H7          -1.0280    -3.3950     5.1220 h1         1 9NJ       0.061700
     43 H8          -6.5800    -1.0680     0.9810 h1         1 9NJ      -0.002300
     44 H9          -6.6210     0.6930     0.8190 h1         1 9NJ      -0.002300
     45 H10         -7.7710    -0.1240     1.8870 h1         1 9NJ      -0.002300
     46 H11         -3.2040    -0.4390    -2.5870 h1         1 9NJ      -0.003633
     47 H12         -4.1920    -1.2360    -1.3550 h1         1 9NJ      -0.003633
     48 H13         -4.2390     0.5240    -1.5240 h1         1 9NJ      -0.003633
     49 H14          2.0090     0.0880    -2.0520 ha         1 9NJ       0.122000
     50 H15          5.1150     0.0020     0.8780 ha         1 9NJ       0.113000
     51 H16          3.4460    -0.0000     2.6850 ha         1 9NJ       0.099000
     52 H17          0.5920     1.0730     6.0700 hc         1 9NJ       0.031450
     53 H18         -1.0250     0.4170     5.7580 hc         1 9NJ       0.031450
     54 H19         -1.1500     2.4930     7.0950 hc         1 9NJ       0.018200
     55 H20         -1.9040     2.7120     5.5060 hc         1 9NJ       0.018200
     56 H21          0.9240     3.5370     6.2520 hc         1 9NJ       0.013700
     57 H22         -0.4560     4.6340     6.0710 hc         1 9NJ       0.013700
     58 H23         -0.6910     3.9440     3.7090 hc         1 9NJ       0.018200
     59 H24          0.9260     4.5990     4.0200 hc         1 9NJ       0.018200
     60 H25          1.0520     2.5230     2.6840 hc         1 9NJ       0.031450
     61 H26          1.8060     2.3040     4.2730 hc         1 9NJ       0.031450
     62 H27         -0.0600    -0.7790     6.0150 hn         1 9NJ       0.198500
     63 H28          0.2760    -3.1540     7.2060 hc         1 9NJ       0.007200
     64 H29         -0.9910    -2.1120     7.8760 hc         1 9NJ       0.007200
     65 H30         -1.3540    -4.9990     7.0000 hc         1 9NJ       0.027700
     66 H31         -1.2430    -4.4360     8.6770 hc         1 9NJ       0.027700
     67 H32         -3.2560    -3.0440     8.3390 hc         1 9NJ       0.018700
     68 H33         -2.9310    -1.4390     6.4600 hc         1 9NJ       0.007200
     69 H34         -3.0420    -2.0040     4.7840 hc         1 9NJ       0.007200
     70 O17         -0.8360    -1.8850     3.2090 o          1 9NJ      -0.620100
     71 C36         -6.7580    -0.1360     1.5030 c3         1 9NJ       0.255700
     72 H4          -4.5610    -3.2830     6.2550 hc         1 9NJ       0.027700
     73 H5          -3.2950    -4.3260     5.5850 hc         1 9NJ       0.027700
@<TRIPOS>BOND
     1     1     3 1   
     2     1    19 2   
     3     2     6 ar  
     4     2     8 ar  
     5     2    19 1   
     6     3     5 ar  
     7     3    20 ar  
     8     4     7 1   
     9     4    30 1   
    10     4    70 2   
    11     5    23 ar  
    12     5    24 1   
    13     6    16 1   
    14     6    18 ar  
    15     7    10 1   
    16     7    24 1   
    17     7    38 1   
    18     8    13 ar  
    19     8    39 1   
    20     9    13 ar  
    21     9    15 1   
    22     9    18 ar  
    23    10    25 1   
    24    10    29 1   
    25    10    40 1   
    26    11    20 ar  
    27    11    21 1   
    28    11    22 ar  
    29    12    33 1   
    30    12    34 1   
    31    12    72 1   
    32    12    73 1   
    33    13    41 1   
    34    14    30 1   
    35    14    31 1   
    36    14    34 1   
    37    14    42 1   
    38    15    71 1   
    39    16    17 1   
    40    17    46 1   
    41    17    47 1   
    42    17    48 1   
    43    19    24 1   
    44    20    49 1   
    45    22    23 ar  
    46    22    50 1   
    47    23    51 1   
    48    25    26 1   
    49    25    52 1   
    50    25    53 1   
    51    26    27 1   
    52    26    54 1   
    53    26    55 1   
    54    27    28 1   
    55    27    56 1   
    56    27    57 1   
    57    28    29 1   
    58    28    58 1   
    59    28    59 1   
    60    29    60 1   
    61    29    61 1   
    62    30    62 1   
    63    31    32 1   
    64    31    63 1   
    65    31    64 1   
    66    32    33 1   
    67    32    65 1   
    68    32    66 1   
    69    33    35 1   
    70    33    67 1   
    71    34    68 1   
    72    34    69 1   
    73    35    36 1   
    74    35    37 1   
    75    43    71 1   
    76    44    71 1   
    77    45    71 1   
@<TRIPOS>SUBSTRUCTURE
     1 9NJ         1 TEMP              0 ****  ****    0 ROOT
