@<TRIPOS>MOLECULE
molecule
   73    77     1     0     0
SMALL
bcc


@<TRIPOS>ATOM
      1 N3           0.0000     0.0000     0.0000 nc         1 9NJ      -0.594100
      2 C4          -1.8650    -0.0020     1.6280 ca         1 9NJ      -0.276200
      3 C5           1.3560     0.0000     0.0000 ca         1 9NJ       0.127400
      4 C6          -0.3120    -1.1570     4.0260 c          1 9NJ       0.627100
      5 C7           1.7710     0.0000     1.3440 ca         1 9NJ      -0.105200
      6 C8          -2.8700    -0.1200     0.6590 ca         1 9NJ       0.734600
      7 C10          0.5380    -0.0010     3.5680 c3         1 9NJ      -0.024000
      8 C13         -2.2300     0.1110     2.9740 ca         1 9NJ      -0.041000
      9 C15         -4.5160    -0.0100     2.2780 ca         1 9NJ       0.711600
     10 C20         -0.0860     1.3120     4.0450 c3         1 9NJ      -0.115700
     11 C21          3.6560     0.0020    -0.6930 ca         1 9NJ       0.107900
     12 C22         -3.4990    -3.5000     6.2550 c3         1 9NJ      -0.053900
     13 C24         -3.5740     0.1060     3.2940 ca         1 9NJ      -0.306300
     14 C26         -1.2290    -2.5660     5.7900 c3         1 9NJ       0.108700
     15 O32         -5.8360    -0.0150     2.5890 os         1 9NJ      -0.433100
     16 O25         -2.5350    -0.2360    -0.6480 os         1 9NJ      -0.394100
     17 C35         -3.6070    -0.3540    -1.5850 c3         1 9NJ       0.133700
     18 N9          -4.1450    -0.1210     1.0120 nb         1 9NJ      -0.862000
     19 C1          -0.4410    -0.0010     1.2350 cd         1 9NJ       0.547400
     20 C14          2.3160     0.0010    -1.0170 ca         1 9NJ      -0.121000
     21 F29          4.5820     0.0030    -1.6750 f          1 9NJ      -0.150900
     22 C27          4.0590     0.0020     0.6360 ca         1 9NJ      -0.166000
     23 C16          3.1240     0.0000     1.6510 ca         1 9NJ      -0.100000
     24 N2           0.6160    -0.0010     2.1050 na         1 9NJ      -0.136300
     25 C33         -0.3450     1.2350     5.5510 c3         1 9NJ      -0.093900
     26 C38         -0.9690     2.5480     6.0280 c3         1 9NJ      -0.076900
     27 C39         -0.0120     3.7050     5.7340 c3         1 9NJ      -0.082400
     28 C37          0.2470     3.7820     4.2280 c3         1 9NJ      -0.076900
     29 C34          0.8710     2.4690     3.7510 c3         1 9NJ      -0.093900
     30 N11         -0.4910    -1.3820     5.3430 ns         1 9NJ      -0.584900
     31 C30         -0.7860    -2.9380     7.2060 c3         1 9NJ      -0.098900
     32 C23         -1.5560    -4.1750     7.6730 c3         1 9NJ      -0.053900
     33 C18         -3.0560    -3.8730     7.6710 c3         1 9NJ      -0.174700
     34 C31         -2.7290    -2.2650     5.7880 c3         1 9NJ      -0.098900
     35 C12         -3.8150    -5.0910     8.1310 c          1 9NJ       0.894600
     36 O19         -4.6260    -5.6080     7.4010 o          1 9NJ      -0.848300
     37 O28         -3.5890    -5.6010     9.3520 o          1 9NJ      -0.848300
     38 H1           1.5340    -0.0990     3.9830 h1         1 9NJ       0.087700
     39 H2          -1.4770     0.2020     3.7470 ha         1 9NJ       0.181000
     40 H3          -1.0230     1.4810     3.5280 hc         1 9NJ       0.097700
     41 H6          -3.8910     0.1910     4.3260 ha         1 9NJ       0.160000
     42 H7          -1.0280    -3.3950     5.1220 h1         1 9NJ       0.081700
     43 H8          -6.5800    -1.0680     0.9810 h1         1 9NJ       0.044033
     44 H9          -6.6210     0.6930     0.8190 h1         1 9NJ       0.044033
     45 H10         -7.7710    -0.1240     1.8870 h1         1 9NJ       0.044033
     46 H11         -3.2040    -0.4390    -2.5870 h1         1 9NJ       0.042033
     47 H12         -4.1920    -1.2360    -1.3550 h1         1 9NJ       0.042033
     48 H13         -4.2390     0.5240    -1.5240 h1         1 9NJ       0.042033
     49 H14          2.0090     0.0880    -2.0520 ha         1 9NJ       0.152000
     50 H15          5.1150     0.0020     0.8780 ha         1 9NJ       0.139000
     51 H16          3.4460    -0.0000     2.6850 ha         1 9NJ       0.127000
     52 H17          0.5920     1.0730     6.0700 hc         1 9NJ       0.054950
     53 H18         -1.0250     0.4170     5.7580 hc         1 9NJ       0.054950
     54 H19         -1.1500     2.4930     7.0950 hc         1 9NJ       0.045950
     55 H20         -1.9040     2.7120     5.5060 hc         1 9NJ       0.045950
     56 H21          0.9240     3.5370     6.2520 hc         1 9NJ       0.039700
     57 H22         -0.4560     4.6340     6.0710 hc         1 9NJ       0.039700
     58 H23         -0.6910     3.9440     3.7090 hc         1 9NJ       0.045950
     59 H24          0.9260     4.5990     4.0200 hc         1 9NJ       0.045950
     60 H25          1.0520     2.5230     2.6840 hc         1 9NJ       0.054950
     61 H26          1.8060     2.3040     4.2730 hc         1 9NJ       0.054950
     62 H27         -0.0600    -0.7790     6.0150 hn         1 9NJ       0.318500
     63 H28          0.2760    -3.1540     7.2060 hc         1 9NJ       0.029950
     64 H29         -0.9910    -2.1120     7.8760 hc         1 9NJ       0.029950
     65 H30         -1.3540    -4.9990     7.0000 hc         1 9NJ       0.053950
     66 H31         -1.2430    -4.4360     8.6770 hc         1 9NJ       0.053950
     67 H32         -3.2560    -3.0440     8.3390 hc         1 9NJ       0.037700
     68 H33         -2.9310    -1.4390     6.4600 hc         1 9NJ       0.029950
     69 H34         -3.0420    -2.0040     4.7840 hc         1 9NJ       0.029950
     70 O17         -0.8360    -1.8850     3.2090 o          1 9NJ      -0.578100
     71 C36         -6.7580    -0.1360     1.5030 c3         1 9NJ       0.138700
     72 H4          -4.5610    -3.2830     6.2550 hc         1 9NJ       0.053950
     73 H5          -3.2950    -4.3260     5.5850 hc         1 9NJ       0.053950
@<TRIPOS>BOND
     1    36    35 1
     2    17    16 1
     3    12    34 1
     4    12    33 1
     5    35    37 1
     6    35    33 1
     7    34    14 1
     8    33    32 1
     9    16     6 1
    10    18     6 ar
    11    18     9 ar
    12     6     2 ar
    13    71    15 1
    14    20     3 ar
    15    20    11 ar
    16     1     3 1
    17     1    19 2
    18    21    11 1
    19    14    30 1
    20    14    31 1
    21    15     9 1
    22    32    31 1
    23     3     5 ar
    24     9    13 ar
    25    11    22 ar
    26     2    19 1
    27     2     8 ar
    28    19    24 1
    29    30     4 1
    30    13     8 ar
    31     5    24 1
    32     5    23 ar
    33    22    23 ar
    34    24     7 1
    35     4     7 1
    36     4    70 2
    37     7    10 1
    38    10    29 1
    39    10    25 1
    40    29    28 1
    41    25    26 1
    42    28    27 1
    43    26    27 1
    44     7    38 1
    45     8    39 1
    46    10    40 1
    47    12    72 1
    48    12    73 1
    49    13    41 1
    50    14    42 1
    51    71    43 1
    52    71    44 1
    53    71    45 1
    54    17    46 1
    55    17    47 1
    56    17    48 1
    57    20    49 1
    58    22    50 1
    59    23    51 1
    60    25    52 1
    61    25    53 1
    62    26    54 1
    63    26    55 1
    64    27    56 1
    65    27    57 1
    66    28    58 1
    67    28    59 1
    68    29    60 1
    69    29    61 1
    70    30    62 1
    71    31    63 1
    72    31    64 1
    73    32    65 1
    74    32    66 1
    75    33    67 1
    76    34    68 1
    77    34    69 1
@<TRIPOS>SUBSTRUCTURE
     1 9NJ         1 TEMP              0 ****  ****    0 ROOT
