@<TRIPOS>MOLECULE
molecule
   41    42     1     0     0
SMALL
bcc


@<TRIPOS>ATOM
      1 C10          0.0000     0.0000     0.0000 ca         1 9NK      -0.108500
      2 C11          3.5700     6.2380    -1.8060 c3         1 9NK      -0.084400
      3 C12          2.7640     5.2870    -2.6950 c3         1 9NK      -0.096400
      4 C13          2.0220     4.2780    -1.8140 c3         1 9NK       0.096000
      5 C14          3.8810     4.4330    -0.1080 c3         1 9NK       0.014700
      6 C15          4.6030     5.4400    -1.0070 c3         1 9NK      -0.082400
      7 C16          4.8930     3.5530     0.5780 c          1 9NK       0.910600
      8 C01          1.3820     0.0000     0.0000 ca         1 9NK      -0.086300
      9 C02          2.1360     0.0020    -1.3050 c3         1 9NK      -0.023100
     10 C03          2.2320     1.4330    -1.8360 c3         1 9NK      -0.130700
     11 C04          2.8810     1.4200    -3.2230 c3         1 9NK       0.064700
     12 C05          3.0680     2.2630    -0.8980 c          1 9NK       0.650100
     13 C06          2.0730     0.0000     1.1970 ca         1 9NK      -0.108500
     14 C07          1.3810    -0.0010     2.3950 ca         1 9NK      -0.137500
     15 C08         -0.0010    -0.0030     2.3940 ca         1 9NK      -0.141000
     16 C09         -0.6920     0.0050     1.1970 ca         1 9NK      -0.137500
     17 N01          2.9940     3.6080    -0.9380 n          1 9NK      -0.472800
     18 O01          3.8100     1.7210    -0.1060 o          1 9NK      -0.512100
     19 S01          1.8270     0.4970    -4.3750 sh         1 9NK      -0.468900
     20 H1          -0.5410     0.0060    -0.9380 ha         1 9NK       0.148000
     21 H2           2.9000     6.7450    -1.1220 hc         1 9NK       0.025700
     22 H3           4.0790     6.9660    -2.4260 hc         1 9NK       0.025700
     23 H4           3.4370     4.7590    -3.3600 hc         1 9NK       0.031700
     24 H5           2.0470     5.8560    -3.2740 hc         1 9NK       0.031700
     25 H6           1.5320     3.5420    -2.4410 h1         1 9NK       0.035700
     26 H7           1.2860     4.7960    -1.2100 h1         1 9NK       0.035700
     27 H8           3.2930     4.9650     0.6310 h1         1 9NK       0.045700
     28 H9           5.2560     4.9100    -1.6900 hc         1 9NK       0.053200
     29 H10          5.1860     6.1180    -0.3940 hc         1 9NK       0.053200
     30 H11          1.6130    -0.6160    -2.0250 hc         1 9NK       0.062700
     31 H12          3.1320    -0.3920    -1.1470 hc         1 9NK       0.062700
     32 H13          1.2380     1.8590    -1.9070 hc         1 9NK       0.065700
     33 H14          2.9980     2.4370    -3.5770 h1         1 9NK       0.070700
     34 H15          3.8520     0.9440    -3.1620 h1         1 9NK       0.070700
     35 H16          3.1560     0.0010     1.1980 ha         1 9NK       0.148000
     36 H17          1.9230    -0.0040     3.3330 ha         1 9NK       0.121000
     37 H18         -0.5430    -0.0020     3.3320 ha         1 9NK       0.112000
     38 H19         -1.7750     0.0040     1.1960 ha         1 9NK       0.121000
     39 H21          2.3380     0.5710    -5.5980 hs         1 9NK       0.205800
     40 O02          4.9270     3.4870     1.9190 o          1 9NK      -0.837300
     41 O03          5.6740     2.9050    -0.0770 o          1 9NK      -0.837300
@<TRIPOS>BOND
     1    16    15 ar
     2    16     1 ar
     3    15    14 ar
     4     1     8 ar
     5    14    13 ar
     6     8    13 ar
     7     8     9 1
     8    18    12 2
     9     9    10 1
    10    41     7 1
    11     5     6 1
    12     5     7 1
    13     5    17 1
    14    12    17 1
    15    12    10 1
    16     6     2 1
    17     7    40 1
    18    17     4 1
    19    10    11 1
    20    11    19 1
    21     4     3 1
    22     2     3 1
    23     1    20 1
    24     2    21 1
    25     2    22 1
    26     3    23 1
    27     3    24 1
    28     4    25 1
    29     4    26 1
    30     5    27 1
    31     6    28 1
    32     6    29 1
    33     9    30 1
    34     9    31 1
    35    10    32 1
    36    11    33 1
    37    11    34 1
    38    13    35 1
    39    14    36 1
    40    15    37 1
    41    16    38 1
    42    19    39 1
@<TRIPOS>SUBSTRUCTURE
     1 9NK         1 TEMP              0 ****  ****    0 ROOT
