@<TRIPOS>MOLECULE
9NM
   56    60     1     0     0
SMALL
bcc


@<TRIPOS>ATOM
      1 C4           0.0000     0.0000     0.0000 c3         1 9NM      -0.145500
      2 C5          -2.6480     0.2720     1.3570 c2         1 9NM       0.216000
      3 C6          -2.6480     2.2280     0.0830 c3         1 9NM       0.356000
      4 C7           1.5300     1.2510     2.1620 c3         1 9NM      -0.096500
      5 C8           1.5310     0.0000     0.0000 c3         1 9NM      -0.096500
      6 C13          2.0410     0.0000     1.4420 c3         1 9NM      -0.108000
      7 C15         -2.6000     4.1390    -1.4280 c2         1 9NM       0.019000
      8 C17         -1.8390    -2.5650     3.5490 c3         1 9NM      -0.119500
      9 C20         -2.6090    -3.7290     4.1760 c3         1 9NM      -0.096000
     10 C21         -0.4710     5.1380    -2.2360 c2         1 9NM      -0.127500
     11 C22         -2.5710     6.0910    -2.9700 c2         1 9NM      -0.127500
     12 C24          0.2080     6.0730    -2.9870 c2         1 9NM      -0.099000
     13 C26         -0.4930     7.0150    -3.7260 c2         1 9NM       0.037000
     14 F27          0.1780     7.9280    -4.4600 f          1 9NM      -0.093000
     15 C18         -1.8700     5.1380    -2.2230 c3         1 9NM      -0.021000
     16 C11         -1.9210     3.2200    -0.7080 c2         1 9NM      -0.168000
     17 O12         -3.8600     2.2850     0.1640 o          1 9NM      -0.345000
     18 N2          -1.9740     1.2500     0.7190 n          1 9NM       0.012000
     19 C1          -0.5090     1.2500     0.7190 c3         1 9NM      -0.077000
     20 C3           0.0010     1.2510     2.1620 c3         1 9NM      -0.145500
     21 O10         -3.8600     0.3260     1.4420 o          1 9NM      -0.383000
     22 N9          -1.9790    -0.7630     1.9020 ns         1 9NM      -0.077000
     23 C14         -2.7170    -1.8770     2.5020 c3         1 9NM      -0.044000
     24 C16         -3.0950    -2.8830     1.4130 c3         1 9NM      -0.119500
     25 C19         -3.8650    -4.0480     2.0400 c3         1 9NM      -0.096000
     26 C23         -2.9880    -4.7350     3.0870 c3         1 9NM      -0.107000
     27 C25         -1.8800     7.0220    -3.7130 c2         1 9NM      -0.099000
     28 H1          -0.3600    -0.8830     0.5140 hc         1 9NM       0.072750
     29 H2          -0.3600     0.0010    -1.0220 hc         1 9NM       0.072750
     30 H3           1.8900     1.2490     3.1840 hc         1 9NM       0.058750
     31 H4           1.8910     2.1340     1.6490 hc         1 9NM       0.058750
     32 H5           1.8910     0.8860    -0.5090 hc         1 9NM       0.058750
     33 H6           1.8910    -0.8860    -0.5090 hc         1 9NM       0.058750
     34 H7           1.6760    -0.8830     1.9530 hc         1 9NM       0.056000
     35 H8           3.1240     0.0020     1.4410 hc         1 9NM       0.056000
     36 H9          -2.1410     3.9390    -2.3880 DU         1 9NM       0.096000
     37 H10         -1.5750    -1.8520     4.3210 hc         1 9NM       0.057750
     38 H11         -0.9410    -2.9410     3.0750 hc         1 9NM       0.057750
     39 H12         -3.5090    -3.3530     4.6480 hc         1 9NM       0.056750
     40 H13         -1.9850    -4.2170     4.9150 hc         1 9NM       0.056750
     41 H15         -3.6540     6.0980    -2.9610 ha         1 9NM       0.123000
     42 H16          1.2910     6.0740    -2.9980 ha         1 9NM       0.119500
     43 H17         -2.3940     2.3360    -1.1200 DU         1 9NM       0.025000
     44 H18         -0.1430     2.1320     0.2090 h1         1 9NM       0.106000
     45 H19         -0.3590     2.1380     2.6700 hc         1 9NM       0.072750
     46 H20         -0.3600     0.3660     2.6720 hc         1 9NM       0.072750
     47 H21         -0.9790    -0.7570     1.9210 hn         1 9NM       0.130000
     48 H22         -3.6170    -1.5060     2.9760 h1         1 9NM       0.104000
     49 H23         -2.1950    -3.2590     0.9410 hc         1 9NM       0.057750
     50 H24         -3.7200    -2.3960     0.6740 hc         1 9NM       0.057750
     51 H25         -4.1290    -4.7610     1.2680 hc         1 9NM       0.056750
     52 H26         -4.7630    -3.6710     2.5140 hc         1 9NM       0.056750
     53 H27         -3.5360    -5.5570     3.5320 hc         1 9NM       0.053500
     54 H28         -2.0880    -5.1090     2.6140 hc         1 9NM       0.053500
     55 H29         -2.4210     7.7610    -4.2920 ha         1 9NM       0.119500
     56 H14          0.0780     4.4030    -1.6590 ha         1 9NM       0.123000
@<TRIPOS>BOND
     1     1     5 1   
     2     1    19 1   
     3     1    28 1   
     4     1    29 1   
     5     2    18 1   
     6     2    21 1   
     7     2    22 1   
     8     3    16 1   
     9     3    17 1   
    10     3    18 1   
    11     3    43 1   
    12     4     6 1   
    13     4    20 1   
    14     4    30 1   
    15     4    31 1   
    16     5     6 1   
    17     5    32 1   
    18     5    33 1   
    19     6    34 1   
    20     6    35 1   
    21     7    15 1   
    22     7    16 1   
    23     7    36 1   
    24     8     9 1   
    25     8    23 1   
    26     8    37 1   
    27     8    38 1   
    28     9    26 1   
    29     9    39 1   
    30     9    40 1   
    31    10    12 1   
    32    10    15 1   
    33    10    56 1   
    34    11    15 1   
    35    11    27 1   
    36    11    41 1   
    37    12    13 1   
    38    12    42 1   
    39    13    14 1   
    40    13    27 1   
    41    15    36 1   
    42    16    43 1   
    43    18    19 1   
    44    19    20 1   
    45    19    44 1   
    46    20    45 1   
    47    20    46 1   
    48    22    23 1   
    49    22    47 1   
    50    23    24 1   
    51    23    48 1   
    52    24    25 1   
    53    24    49 1   
    54    24    50 1   
    55    25    26 1   
    56    25    51 1   
    57    25    52 1   
    58    26    53 1   
    59    26    54 1   
    60    27    55 1   
@<TRIPOS>SUBSTRUCTURE
     1 9NM         1 TEMP              0 ****  ****    0 ROOT
