@<TRIPOS>MOLECULE
molecule
   56    58     1     0     0
SMALL
bcc


@<TRIPOS>ATOM
      1 C4           0.0000     0.0000     0.0000 c3         1 9NM      -0.108900
      2 C5          -2.6480     0.2720     1.3570 c          1 9NM       0.775100
      3 C6          -2.6480     2.2280     0.0830 c          1 9NM       0.669300
      4 C7           1.5300     1.2510     2.1620 c3         1 9NM      -0.080400
      5 C8           1.5310     0.0000     0.0000 c3         1 9NM      -0.080400
      6 C13          2.0410     0.0000     1.4420 c3         1 9NM      -0.085400
      7 C15         -2.6000     4.1390    -1.4280 ce         1 9NM      -0.016200
      8 C17         -1.8390    -2.5650     3.5490 c3         1 9NM      -0.094400
      9 C20         -2.6090    -3.7290     4.1760 c3         1 9NM      -0.076900
     10 C21         -0.4710     5.1380    -2.2360 ca         1 9NM      -0.081500
     11 C22         -2.5710     6.0910    -2.9700 ca         1 9NM      -0.081500
     12 C24          0.2080     6.0730    -2.9870 ca         1 9NM      -0.170500
     13 C26         -0.4930     7.0150    -3.7260 ca         1 9NM       0.145900
     14 F27          0.1780     7.9280    -4.4600 f          1 9NM      -0.136900
     15 C18         -1.8700     5.1380    -2.2230 ca         1 9NM      -0.096800
     16 C11         -1.9210     3.2200    -0.7080 cf         1 9NM      -0.263200
     17 O12         -3.8600     2.2850     0.1640 o          1 9NM      -0.531100
     18 N2          -1.9740     1.2500     0.7190 n          1 9NM      -0.493400
     19 C1          -0.5090     1.2500     0.7190 c3         1 9NM       0.087700
     20 C3           0.0010     1.2510     2.1620 c3         1 9NM      -0.108900
     21 O10         -3.8600     0.3260     1.4420 o          1 9NM      -0.589100
     22 N9          -1.9790    -0.7630     1.9020 ns         1 9NM      -0.613900
     23 C14         -2.7170    -1.8770     2.5020 c3         1 9NM       0.127700
     24 C16         -3.0950    -2.8830     1.4130 c3         1 9NM      -0.094400
     25 C19         -3.8650    -4.0480     2.0400 c3         1 9NM      -0.076900
     26 C23         -2.9880    -4.7350     3.0870 c3         1 9NM      -0.083400
     27 C25         -1.8800     7.0220    -3.7130 ca         1 9NM      -0.170500
     28 H1          -0.3600     0.0010    -1.0220 hc         1 9NM       0.059700
     29 H2          -0.3600    -0.8830     0.5140 hc         1 9NM       0.059700
     30 H3           1.8900     1.2490     3.1840 hc         1 9NM       0.046950
     31 H4           1.8910     2.1340     1.6490 hc         1 9NM       0.046950
     32 H5           1.8910     0.8860    -0.5090 hc         1 9NM       0.046950
     33 H6           1.8910    -0.8860    -0.5090 hc         1 9NM       0.046950
     34 H7           3.1240     0.0020     1.4410 hc         1 9NM       0.045200
     35 H8           1.6760    -0.8830     1.9530 hc         1 9NM       0.045200
     36 H9          -3.6840     4.1430    -1.4170 ha         1 9NM       0.162000
     37 H10         -1.5750    -1.8520     4.3210 hc         1 9NM       0.046700
     38 H11         -0.9410    -2.9410     3.0750 hc         1 9NM       0.046700
     39 H12         -3.5090    -3.3530     4.6480 hc         1 9NM       0.045700
     40 H13         -1.9850    -4.2170     4.9150 hc         1 9NM       0.045700
     41 H15         -3.6540     6.0980    -2.9610 ha         1 9NM       0.141000
     42 H16          1.2910     6.0740    -2.9980 ha         1 9NM       0.148500
     43 H17         -0.8380     3.2180    -0.7180 ha         1 9NM       0.132000
     44 H18         -0.1430     2.1320     0.2090 h1         1 9NM       0.076700
     45 H19         -0.3600     0.3660     2.6720 hc         1 9NM       0.059700
     46 H20         -0.3590     2.1380     2.6700 hc         1 9NM       0.059700
     47 H21         -0.9790    -0.7570     1.9200 hn         1 9NM       0.326500
     48 H22         -3.6170    -1.5060     2.9760 h1         1 9NM       0.084700
     49 H23         -2.1950    -3.2590     0.9410 hc         1 9NM       0.046700
     50 H24         -3.7200    -2.3960     0.6740 hc         1 9NM       0.046700
     51 H25         -4.7630    -3.6710     2.5140 hc         1 9NM       0.045700
     52 H26         -4.1290    -4.7610     1.2680 hc         1 9NM       0.045700
     53 H27         -2.0880    -5.1090     2.6140 hc         1 9NM       0.041700
     54 H28         -3.5360    -5.5570     3.5320 hc         1 9NM       0.041700
     55 H29         -2.4210     7.7610    -4.2920 ha         1 9NM       0.148500
     56 H14          0.0780     4.4030    -1.6590 ha         1 9NM       0.141000
@<TRIPOS>BOND
     1    26    25 1
     2    26     9 1
     3    25    24 1
     4     9     8 1
     5    24    23 1
     6     8    23 1
     7    14    13 1
     8    23    22 1
     9    27    13 ar
    10    27    11 ar
    11    13    12 ar
    12    11    15 ar
    13    22     2 1
    14    12    10 ar
    15    15    10 ar
    16    15     7 1
    17    16     7 2
    18    16     3 1
    19     2    21 2
    20     2    18 1
    21     3    18 1
    22     3    17 2
    23    18    19 1
    24    20    19 1
    25    20     4 1
    26    19     1 1
    27     4     6 1
    28     1     5 1
    29     6     5 1
    30     1    28 1
    31     1    29 1
    32     4    30 1
    33     4    31 1
    34     5    32 1
    35     5    33 1
    36     6    34 1
    37     6    35 1
    38     7    36 1
    39     8    37 1
    40     8    38 1
    41     9    39 1
    42     9    40 1
    43    10    56 1
    44    11    41 1
    45    12    42 1
    46    16    43 1
    47    19    44 1
    48    20    45 1
    49    20    46 1
    50    22    47 1
    51    23    48 1
    52    24    49 1
    53    24    50 1
    54    25    51 1
    55    25    52 1
    56    26    53 1
    57    26    54 1
    58    27    55 1
@<TRIPOS>SUBSTRUCTURE
     1 9NM         1 TEMP              0 ****  ****    0 ROOT
