@<TRIPOS>MOLECULE
molecule
   69    74     1     0     0
SMALL
bcc


@<TRIPOS>ATOM
      1 N3           0.0000     0.0000     0.0000 nc         1 9NP      -0.585100
      2 C4          -0.0780     1.2900     4.0370 c          1 9NP       0.638100
      3 C8          -5.9650    -0.0190     2.7590 cc         1 9NP       0.411000
      4 C10          1.7690     0.0000     1.3440 ca         1 9NP      -0.076200
      5 C15         -4.5390    -0.0140     2.3650 ca         1 9NP      -0.129500
      6 C17         -2.8450     0.3810     0.7100 ca         1 9NP      -0.110500
      7 C20         -4.1730     0.3760     1.0760 ca         1 9NP      -0.099500
      8 C21          1.9470    -0.1370     4.1520 c3         1 9NP      -0.087700
      9 C22         -1.3460     2.5770     5.6720 c3         1 9NP       0.116700
     10 C24          2.3160     0.0010    -1.0170 ca         1 9NP      -0.067000
     11 C26          1.8850     0.0180     5.6720 c3         1 9NP      -0.093400
     12 C28         -2.3730     2.2280     6.7510 c3         1 9NP      -0.092900
     13 O16         -0.0710     2.2640     3.3150 o          1 9NP      -0.571100
     14 N13         -0.6370     1.3630     5.2620 ns         1 9NP      -0.586900
     15 C34         -3.1130     3.4970     7.1800 c3         1 9NP      -0.076900
     16 C35         -2.1100     4.5080     7.7390 c3         1 9NP      -0.083400
     17 C33         -1.0820     4.8570     6.6600 c3         1 9NP      -0.076900
     18 C27         -0.3420     3.5890     6.2310 c3         1 9NP      -0.092900
     19 C9           0.5390    -0.0020     3.5660 c3         1 9NP      -0.014000
     20 C31          3.2920    -0.1170     6.2570 c3         1 9NP      -0.077400
     21 C36          3.8590    -1.4950     5.9080 c3         1 9NP      -0.083400
     22 C32          3.9210    -1.6500     4.3880 c3         1 9NP      -0.077400
     23 C25          2.5140    -1.5150     3.8020 c3         1 9NP      -0.093400
     24 N2           0.6160    -0.0020     2.1030 na         1 9NP      -0.128300
     25 C23          3.1240     0.0000     1.6470 ca         1 9NP      -0.151000
     26 C29          4.0530     0.0010     0.6290 ca         1 9NP      -0.114000
     27 C30          3.6430     0.0010    -0.6970 ca         1 9NP      -0.146000
     28 C12          1.3540     0.0000     0.0000 ca         1 9NP       0.096400
     29 C1          -0.4410    -0.0020     1.2340 cd         1 9NP       0.477400
     30 C14         -1.8660    -0.0030     1.6290 ca         1 9NP      -0.065900
     31 C18         -2.2330    -0.3880     2.9200 ca         1 9NP      -0.110500
     32 C19         -3.5600    -0.3930     3.2850 ca         1 9NP      -0.099500
     33 N7          -6.4730    -0.3700     3.9640 na         1 9NP      -0.122400
     34 N5          -7.7530    -0.2350     3.8880 nc         1 9NP      -0.225800
     35 N6          -8.0640     0.1770     2.7090 nd         1 9NP      -0.029000
     36 N11         -6.9940     0.3220     2.0060 nd         1 9NP      -0.374000
     37 H1          -2.5600     0.6830    -0.2910 ha         1 9NP       0.153500
     38 H2          -4.9320     0.6740     0.3630 ha         1 9NP       0.142000
     39 H3           2.5900     0.6310     3.7390 hc         1 9NP       0.090700
     40 H4          -1.8540     3.0090     4.8190 h1         1 9NP       0.083700
     41 H5           2.0080     0.0010    -2.0550 ha         1 9NP       0.143000
     42 H6           1.4860     0.9950     5.9180 hc         1 9NP       0.053200
     43 H7           1.2470    -0.7530     6.0870 hc         1 9NP       0.053200
     44 H9          -3.0840     1.5140     6.3540 hc         1 9NP       0.045950
     45 H10         -0.6060     0.5710     5.8730 hn         1 9NP       0.311500
     46 H11         -3.6170     3.9270     6.3230 hc         1 9NP       0.047700
     47 H12         -3.8380     3.2490     7.9450 hc         1 9NP       0.047700
     48 H13         -2.6340     5.4060     8.0400 hc         1 9NP       0.043700
     49 H14         -1.6020     4.0760     8.5930 hc         1 9NP       0.043700
     50 H15         -1.5910     5.2840     5.8040 hc         1 9NP       0.047700
     51 H16         -0.3720     5.5710     7.0580 hc         1 9NP       0.047700
     52 H17          0.1620     3.1590     7.0880 hc         1 9NP       0.045950
     53 H18          0.3830     3.8370     5.4650 hc         1 9NP       0.045950
     54 H19         -0.0700    -0.8350     3.8960 h1         1 9NP       0.076700
     55 H20          3.2470    -0.0090     7.3330 hc         1 9NP       0.047200
     56 H21          3.9310     0.6510     5.8380 hc         1 9NP       0.047200
     57 H22          4.8560    -1.5890     6.3200 hc         1 9NP       0.044200
     58 H23          3.2170    -2.2630     6.3220 hc         1 9NP       0.044200
     59 H24          4.5580    -0.8790     3.9730 hc         1 9NP       0.047200
     60 H25          4.3200    -2.6270     4.1420 hc         1 9NP       0.047200
     61 H26          2.5610    -1.6230     2.7250 hc         1 9NP       0.053200
     62 H27          1.8750    -2.2840     4.2200 hc         1 9NP       0.053200
     63 H28          3.4500     0.0010     2.6800 ha         1 9NP       0.149000
     64 H29          5.1100     0.0010     0.8650 ha         1 9NP       0.132000
     65 H30          4.3840     0.0020    -1.4870 ha         1 9NP       0.133000
     66 H31         -1.4730    -0.6840     3.6330 ha         1 9NP       0.153500
     67 H32         -3.8440    -0.6920     4.2870 ha         1 9NP       0.142000
     68 H33         -5.9540    -0.6750     4.7630 hn         1 9NP       0.341700
     69 H8          -1.8650     1.8010     7.6070 hc         1 9NP       0.045950
@<TRIPOS>BOND
     1    34    35 2
     2    34    33 1
     3    35    36 1
     4    33     3 1
     5    36     3 2
     6     3     5 1
     7     5     7 ar
     8     5    32 ar
     9     7     6 ar
    10    32    31 ar
    11    17    18 1
    12    17    16 1
    13    18     9 1
    14     6    30 ar
    15    11    20 1
    16    11     8 1
    17    31    30 ar
    18    16    15 1
    19     9    14 1
    20     9    12 1
    21    20    21 1
    22    30    29 1
    23    13     2 2
    24    14     2 1
    25     2    19 1
    26    21    22 1
    27    19     8 1
    28    19    24 1
    29    15    12 1
    30     8    23 1
    31    29    24 1
    32    29     1 2
    33    23    22 1
    34    24     4 1
    35     1    28 1
    36     4    28 ar
    37     4    25 ar
    38    28    10 ar
    39    25    26 ar
    40    10    27 ar
    41    26    27 ar
    42     6    37 1
    43     7    38 1
    44     8    39 1
    45     9    40 1
    46    10    41 1
    47    11    42 1
    48    11    43 1
    49    12    69 1
    50    12    44 1
    51    14    45 1
    52    15    46 1
    53    15    47 1
    54    16    48 1
    55    16    49 1
    56    17    50 1
    57    17    51 1
    58    18    52 1
    59    18    53 1
    60    19    54 1
    61    20    55 1
    62    20    56 1
    63    21    57 1
    64    21    58 1
    65    22    59 1
    66    22    60 1
    67    23    61 1
    68    23    62 1
    69    25    63 1
    70    26    64 1
    71    27    65 1
    72    31    66 1
    73    32    67 1
    74    33    68 1
@<TRIPOS>SUBSTRUCTURE
     1 9NP         1 TEMP              0 ****  ****    0 ROOT
