@<TRIPOS>MOLECULE
molecule
   57    60     1     0     0
SMALL
bcc


@<TRIPOS>ATOM
      1 C1           0.0000     0.0000     0.0000 c3         1 9NQ      -0.154400
      2 C2           1.5070     0.0000     0.0000 c          1 9NQ       0.678100
      3 C3           1.5750     0.0000     2.5060 c3         1 9NQ       0.094000
      4 O1          11.3550     5.4920     2.8690 os         1 9NQ      -0.430100
      5 C11          9.2520     0.6440     6.0690 c3         1 9NQ       0.158800
      6 C12          7.6880     0.7750     4.2370 c3         1 9NQ       0.218100
      7 C13          7.0260    -0.4510     4.8020 ca         1 9NQ      -0.400900
      8 C14          9.7130     1.9930     4.1790 ca         1 9NQ      -0.066700
      9 C15          8.9810     2.9400     3.4780 ca         1 9NQ       0.434200
     10 C16         10.8180     4.3250     3.3090 ca         1 9NQ       0.681600
     11 C17         10.4880     6.3790     2.1590 c3         1 9NQ       0.138700
     12 C18         11.6130     3.4230     4.0050 ca         1 9NQ      -0.302600
     13 C19         11.0580     2.2370     4.4500 ca         1 9NQ      -0.038000
     14 C20         13.0630     3.7350     4.2720 c3         1 9NQ       0.690200
     15 F2          13.7360     3.9020     3.0580 f          1 9NQ      -0.219300
     16 F           13.1580     4.9100     5.0240 f          1 9NQ      -0.219300
     17 F1          13.6420     2.6790     4.9850 f          1 9NQ      -0.219300
     18 N5           9.5460     4.0610     3.0700 nb         1 9NQ      -0.749000
     19 N4           9.1060     0.8080     4.6140 nh         1 9NQ      -0.581000
     20 C10          8.9080    -0.8000     6.4350 c3         1 9NQ      -0.126700
     21 C9           7.5860    -1.1810     5.8220 ca         1 9NQ       0.512600
     22 N3           6.9440    -2.2510     6.2790 nb         1 9NQ      -0.783000
     23 C8           5.7880    -2.6210     5.7680 ca         1 9NQ       0.726900
     24 N2           5.2170    -1.9520     4.7870 nb         1 9NQ      -0.812000
     25 C7           5.7970    -0.8690     4.2800 ca         1 9NQ       0.737200
     26 N1           5.1940    -0.1650     3.2490 nu         1 9NQ      -0.902900
     27 C5           3.9080    -0.6120     2.7110 c3         1 9NQ       0.228500
     28 C4           2.7280    -0.0270     3.5320 c3         1 9NQ      -0.112400
     29 C6           3.6480    -0.0010     1.3120 c3         1 9NQ       0.093000
     30 N            2.1800     0.0010     1.1670 n          1 9NQ      -0.500800
     31 O            2.1130    -0.0000    -1.0500 o          1 9NQ      -0.603100
     32 C           -0.5100    -0.0000    -1.4430 c3         1 9NQ      -0.077100
     33 H1          -0.3610    -0.8840     0.5110 hc         1 9NQ       0.059200
     34 H2          -0.3610     0.8850     0.5100 hc         1 9NQ       0.059200
     35 H3           0.9540    -0.8790     2.6290 h1         1 9NQ       0.044700
     36 H4           0.9840     0.8970     2.6430 h1         1 9NQ       0.044700
     37 H5          10.2810     0.8410     6.3440 h1         1 9NQ       0.051700
     38 H6           8.5580     1.3090     6.5690 h1         1 9NQ       0.051700
     39 H7           7.2000     1.6510     4.6450 h1         1 9NQ       0.049200
     40 H8           7.6190     0.7380     3.1560 h1         1 9NQ       0.049200
     41 H9           7.9350     2.7580     3.2640 h4         1 9NQ       0.030100
     42 H10         10.1080     5.8820     1.2740 h1         1 9NQ       0.049700
     43 H11         11.0380     7.2650     1.8670 h1         1 9NQ       0.049700
     44 H12          9.6590     6.6620     2.7970 h1         1 9NQ       0.049700
     45 H13         11.6540     1.5160     4.9950 ha         1 9NQ       0.169000
     46 H14          9.6760    -1.4520     6.0380 hc         1 9NQ       0.080200
     47 H15          8.8260    -0.8760     7.5130 hc         1 9NQ       0.080200
     48 H16          5.2950    -3.5000     6.1640 h5         1 9NQ       0.060100
     49 H17          5.6410     0.6460     2.8690 hn         1 9NQ       0.449800
     50 H18          3.8500    -1.6930     2.6740 h1         1 9NQ       0.097700
     51 H19          2.9600     0.9750     3.8720 hc         1 9NQ       0.064700
     52 H20          2.4840    -0.6760     4.3640 hc         1 9NQ       0.064700
     53 H21          4.1010    -0.6160     0.5430 h1         1 9NQ       0.059700
     54 H22          4.0310     1.0120     1.2680 h1         1 9NQ       0.059700
     55 H23         -1.5930     0.0000    -1.4430 hc         1 9NQ       0.044367
     56 H24         -0.1490    -0.8850    -1.9530 hc         1 9NQ       0.044367
     57 H25         -0.1480     0.8840    -1.9540 hc         1 9NQ       0.044367
@<TRIPOS>BOND
     1    22    23 ar
     2    22    21 ar
     3    23    24 ar
     4     5    20 1
     5     5    19 1
     6    20    21 1
     7    21     7 ar
     8    24    25 ar
     9     7    25 ar
    10     7     6 1
    11    25    26 1
    12    19     6 1
    13    19     8 1
    14     9     8 ar
    15     9    18 ar
    16    26    27 1
    17    27    28 1
    18    27    29 1
    19     8    13 ar
    20    18    10 ar
    21    28     3 1
    22    29    30 1
    23    10     4 1
    24    10    12 ar
    25    13    12 ar
    26    11     4 1
    27     3    30 1
    28    12    14 1
    29    30     2 1
    30     2     1 1
    31     2    31 2
    32    14    17 1
    33    14    16 1
    34    14    15 1
    35     1    32 1
    36     1    33 1
    37     1    34 1
    38     3    35 1
    39     3    36 1
    40     5    37 1
    41     5    38 1
    42     6    39 1
    43     6    40 1
    44     9    41 1
    45    11    42 1
    46    11    43 1
    47    11    44 1
    48    13    45 1
    49    20    46 1
    50    20    47 1
    51    23    48 1
    52    26    49 1
    53    27    50 1
    54    28    51 1
    55    28    52 1
    56    29    53 1
    57    29    54 1
    58    32    55 1
    59    32    56 1
    60    32    57 1
@<TRIPOS>SUBSTRUCTURE
     1 9NQ         1 TEMP              0 ****  ****    0 ROOT
