@<TRIPOS>MOLECULE
9NS
   67    68     1     0     0
SMALL
bcc


@<TRIPOS>ATOM
      1 C1          0.5820   -3.2440    0.6050 c1        1 9NS     -0.512000
      2 C2          1.1880   -4.1780    0.0340 c1        1 9NS     -0.199000
      3 C3         -6.0520   -0.5300    3.3480 c2        1 9NS     -0.392000
      4 C4         -0.1730   -2.2770    1.1230 c1        1 9NS     -0.126000
      5 C5          2.6140   -1.7160    2.2310 c2        1 9NS     -0.192000
      6 C6          0.8510    2.3600    7.7710 c3        1 9NS     -0.181000
      7 C7          0.6520    2.1450    9.2010 c1        1 9NS      0.025000
      8 C8         -4.7090   -0.0030    3.3990 c2        1 9NS     -0.218000
      9 C9         -7.0980   -0.0870    2.6880 c1        1 9NS      0.107000
     10 C10         0.1350   -1.3770    2.2410 c3        1 9NS     -0.058000
     11 C11        -0.5490    0.3440    7.2500 c2        1 9NS     -0.190000
     12 C12         1.5390   -1.0500    2.6600 c2        1 9NS     -0.142000
     13 C13         0.5670    1.1990    6.8740 c2        1 9NS     -0.175000
     14 C14        -0.4340    1.2370    9.6060 c3        1 9NS     -0.027000
     15 C15        -0.9550    0.3020    8.5470 c2        1 9NS      0.060000
     16 C16        -4.0960    0.6850    2.4130 c2        1 9NS      0.031000
     17 C18         3.6640   -7.0310   -1.4730 c2        1 9NS     -0.250000
     18 C19        -0.6430   -0.0800    1.9680 c2        1 9NS      0.345000
     19 C21        -3.2510    0.2600   14.5150 c2        1 9NS      0.331000
     20 C22        -2.3110   -0.4610   10.3180 c3        1 9NS     -0.056000
     21 C23        -1.1610   -0.2710   11.3060 c3        1 9NS     -0.013000
     22 C24         1.7210    0.1130    3.6000 c3        1 9NS     -0.010000
     23 C25         1.4000    0.9800    5.8230 c2        1 9NS     -0.008000
     24 C26        -2.6790    1.2040    2.5220 c3        1 9NS      0.018000
     25 C27         0.7970   -1.3350    5.4420 c3        1 9NS      0.088000
     26 C29        -1.6460    0.4040   12.5830 c3        1 9NS     -0.163000
     27 N30        -1.7090    0.1950    2.8220 n         1 9NS     -0.384000
     28 N31         1.4880   -0.1500    5.0160 n3        1 9NS     -0.280000
     29 O32        -2.4870   -0.3230    5.9570 o         1 9NS     -0.331000
     30 O33        -3.2760   -0.2450   15.6740 o         1 9NS     -0.583000
     31 O34        -0.3280    0.7390    1.0830 o         1 9NS     -0.392000
     32 O35        -0.6380   -1.2580    5.3550 os        1 9NS     -0.286000
     33 O36        -3.8190    1.3460   14.2020 o         1 9NS     -0.583000
     34 O37        -4.6650    1.0450    1.2160 oh        1 9NS     -0.257000
     35 O38        -1.8750   -0.6290    8.9580 os        1 9NS     -0.189000
     36 O39        -0.0650    0.4860   10.7570 os        1 9NS     -0.230000
     37 H1          1.0490   -2.2010    4.7640 h2        1 9NS      0.125000
     38 H2          2.5490   -2.5390    1.5000 ha        1 9NS      0.128000
     39 H4         -0.3360   -1.9230    3.1250 hc        1 9NS      0.127000
     40 H5          3.6270   -1.4710    2.5800 ha        1 9NS      0.128000
     41 H3         -6.2030   -1.4330    3.9850 ha        1 9NS      0.195000
     42 H8         -4.1500   -0.2160    4.3310 ha        1 9NS      0.181000
     43 H9         -5.4650    0.5110    1.0800 ho        1 9NS      0.212000
     44 H6          0.1790    3.2310    7.4980 hc        1 9NS      0.130000
     45 H7         -1.2840    1.9510    9.8860 h1        1 9NS      0.144000
     46 H241        1.0620    0.9630    3.2530 h1        1 9NS      0.083000
     47 H242        2.7900    0.4770    3.5320 h1        1 9NS      0.083000
     48 H251        1.9090    2.7200    7.6200 hc        1 9NS      0.130000
     49 H252        2.1590    1.7480    5.5640 h4        1 9NS      0.134000
     50 H261       -2.4000    1.7220    1.5570 h1        1 9NS      0.110000
     51 H262       -2.6770    1.9680    3.3540 h1        1 9NS      0.110000
     52 H171        2.0610   -5.6690   -0.9590 ha        1 9NS      0.117500
     53 H172        1.7250   -6.9030   -2.3220 ha        1 9NS      0.117500
     54 H18         4.0300   -7.8600   -2.0920 ha        1 9NS      0.117500
     55 H271        1.0800   -1.5520    6.5120 h2        1 9NS      0.125000
     56 H272        4.3930   -6.6560   -0.7430 ha        1 9NS      0.117500
     57 H30        -1.9780   -0.4990    3.4860 hn        1 9NS      0.238000
     58 H281       -1.8800   -1.3180   13.8820 hc        1 9NS      0.061500
     59 H282       -3.2760   -1.0120   12.7700 hc        1 9NS      0.061500
     60 H221       -3.0220    0.4050   10.3590 h1        1 9NS      0.118500
     61 H222       -2.8620   -1.4160   10.5280 h1        1 9NS      0.118500
     62 H23        -0.6880   -1.2670   11.5430 h1        1 9NS      0.110000
     63 H291       -0.7500    0.7280   13.1740 hc        1 9NS      0.102000
     64 H292       -2.2310    1.3300   12.3350 hc        1 9NS      0.102000
     65 C17         2.4460   -6.5180   -1.5870 c2        1 9NS     -0.250000
     66 C28        -2.5040   -0.5180   13.4130 c3        1 9NS     -0.229000
     67 C20        -1.2800   -0.3930    6.2040 c2        1 9NS      0.376000
@<TRIPOS>BOND
     1    1    2 1
     2    1    4 1
     3    3    8 1
     4    3    9 1
     5    3   41 1
     6    4   10 1
     7    5   12 1
     8    5   38 1
     9    5   40 1
    10    6    7 1
    11    6   13 1
    12    6   44 1
    13    6   48 1
    14    7   14 1
    15    8   16 1
    16    8   42 1
    17   10   12 1
    18   10   18 1
    19   10   39 1
    20   11   13 1
    21   11   15 1
    22   11   67 1
    23   12   22 1
    24   13   23 1
    25   14   15 1
    26   14   36 1
    27   14   45 1
    28   15   35 1
    29   16   24 1
    30   16   34 1
    31   17   54 1
    32   17   56 1
    33   17   65 1
    34   18   27 1
    35   18   31 1
    36   19   30 1
    37   19   33 1
    38   19   66 1
    39   20   21 1
    40   20   35 1
    41   20   60 1
    42   20   61 1
    43   21   26 1
    44   21   36 1
    45   21   62 1
    46   22   28 1
    47   22   46 1
    48   22   47 1
    49   23   28 1
    50   23   49 1
    51   24   27 1
    52   24   50 1
    53   24   51 1
    54   25   28 1
    55   25   32 1
    56   25   37 1
    57   25   55 1
    58   26   63 1
    59   26   64 1
    60   26   66 1
    61   27   57 1
    62   29   67 1
    63   32   67 1
    64   34   43 1
    65   52   65 1
    66   53   65 1
    67   58   66 1
    68   59   66 1
@<TRIPOS>SUBSTRUCTURE
     1 9NS         1 TEMP              0 ****  ****    0 ROOT
