@<TRIPOS>MOLECULE
molecule
   38    40     1     0     0
SMALL
bcc


@<TRIPOS>ATOM
      1 C3           0.0000     0.0000     0.0000 c3         1 9NT       0.095800
      2 N4           1.4690     0.0000     0.0000 nx         1 9NT      -0.635400
      3 C7           1.9570    -1.1980    -0.6960 c3         1 9NT       0.017800
      4 C8           3.4580    -1.1390    -0.8050 c          1 9NT       0.638100
      5 O9           4.0620    -0.1910    -0.3490 o          1 9NT      -0.594100
      6 N10          4.1300    -2.1370    -1.4110 ns         1 9NT      -0.428100
      7 C11          5.5120    -2.0320    -1.6110 ca         1 9NT       0.012600
      8 C12          6.3100    -3.1690    -1.5670 ca         1 9NT      -0.131000
      9 C13          7.6750    -3.0620    -1.7660 ca         1 9NT       0.075100
     10 C14          8.2480    -1.8160    -2.0100 ca         1 9NT       0.068100
     11 C15          7.4500    -0.6850    -2.0530 ca         1 9NT      -0.097000
     12 C16          6.0850    -0.7920    -1.8600 ca         1 9NT      -0.114000
     13 O17          8.6630    -4.0050    -1.7740 os         1 9NT      -0.316900
     14 C18          9.7840    -3.3820    -2.4280 c3         1 9NT       0.331200
     15 O19          9.5950    -1.9780    -2.1700 os         1 9NT      -0.312900
     16 H3          -0.3590    -0.8550     0.5600 hx         1 9NT       0.107950
     17 H1          -0.3590    -0.0530    -1.0210 hx         1 9NT       0.107950
     18 H7A          1.5240    -1.2410    -1.6880 hx         1 9NT       0.116700
     19 H7           1.6700    -2.0810    -0.1380 hx         1 9NT       0.116700
     20 HN10         3.6380    -2.9470    -1.7340 hn         1 9NT       0.336500
     21 H12          5.8690    -4.1310    -1.3350 ha         1 9NT       0.150000
     22 H4           7.8940     0.2840    -2.2470 ha         1 9NT       0.161000
     23 H16          5.4580     0.0880    -1.9360 ha         1 9NT       0.154000
     24 H18A        10.7080    -3.7180    -1.9730 h2         1 9NT       0.084200
     25 H18          9.7390    -3.5690    -3.4940 h2         1 9NT       0.084200
     26 C1          -0.5130     1.2860     0.6520 c3         1 9NT      -0.102900
     27 C2           0.0000     1.3610     2.0930 c3         1 9NT      -0.098400
     28 C4           1.5290     1.2850     2.0850 c3         1 9NT      -0.102900
     29 C6           1.9670     0.0000     1.3810 c3         1 9NT       0.095800
     30 H2          -1.5960     1.2820     0.6560 hc         1 9NT       0.085950
     31 H5          -0.1510     2.1420     0.0960 hc         1 9NT       0.085950
     32 H6          -0.3120     2.2980     2.5390 hc         1 9NT       0.078200
     33 H8          -0.4000     0.5310     2.6630 hc         1 9NT       0.078200
     34 H9           1.9310     2.1410     1.5560 hc         1 9NT       0.085950
     35 H10          1.8950     1.2790     3.1050 hc         1 9NT       0.085950
     36 H11          3.0490    -0.0540     1.3720 hx         1 9NT       0.107950
     37 H13          1.5620    -0.8550     1.9080 hx         1 9NT       0.107950
     38 HN4          1.7990     0.8200    -0.4700 hn         1 9NT       0.462800
@<TRIPOS>BOND
     1     2     3 1
     2     2     1 1
     3     3     4 1
     4     4     5 2
     5     4     6 1
     6     6     7 1
     7     7    12 ar
     8     7     8 ar
     9    12    11 ar
    10     8     9 ar
    11    11    10 ar
    12     9    10 ar
    13     9    13 1
    14    10    15 1
    15    13    14 1
    16    15    14 1
    17     1    16 1
    18     1    17 1
    19     3    18 1
    20     3    19 1
    21     6    20 1
    22     8    21 1
    23    11    22 1
    24    12    23 1
    25    14    24 1
    26    14    25 1
    27     1    26 1
    28    26    27 1
    29    27    28 1
    30    28    29 1
    31     2    29 1
    32    26    30 1
    33    26    31 1
    34    27    32 1
    35    27    33 1
    36    28    34 1
    37    28    35 1
    38    29    36 1
    39    29    37 1
    40     2    38 1
@<TRIPOS>SUBSTRUCTURE
     1 9NT         1 TEMP              0 ****  ****    0 ROOT
