@<TRIPOS>MOLECULE
molecule
   83    86     1     0     0
SMALL
bcc


@<TRIPOS>ATOM
      1 O3           0.0000     0.0000     0.0000 o          1 9NU      -0.616100
      2 C17          1.2150     0.0000     0.0000 c          1 9NU       0.677700
      3 C18          1.9530     0.0000     1.2810 ca         1 9NU      -0.139600
      4 C23          1.2580     0.0020     2.4910 ca         1 9NU      -0.088000
      5 C22          1.9530     0.0020     3.6830 ca         1 9NU      -0.111500
      6 C21          3.3370     0.0020     3.6810 ca         1 9NU      -0.089300
      7 C24          4.0900     0.0030     4.9850 c3         1 9NU       0.123600
      8 N4           4.3330    -1.3770     5.4100 na         1 9NU       0.061400
      9 N5           3.3600    -2.3710     5.5820 nc         1 9NU      -0.508800
     10 C27          3.9590    -3.4680     5.9670 cd         1 9NU       0.333200
     11 C26          5.3310    -3.2090     6.0530 cd         1 9NU      -0.352300
     12 C25          5.5350    -1.9190     5.7000 cc         1 9NU      -0.114300
     13 C20          4.0330    -0.0000     2.4850 ca         1 9NU      -0.111500
     14 C19          3.3490    -0.0060     1.2860 ca         1 9NU      -0.088000
     15 N3           1.8900    -0.0080    -1.1660 ns         1 9NU      -0.565900
     16 C2           1.1620    -0.1260    -2.4330 c3         1 9NU       0.039700
     17 C1           0.7940     1.2690    -2.9410 c3         1 9NU       0.125100
     18 O4           0.0950     1.1550    -4.1830 os         1 9NU      -0.433600
     19 C28         -1.1580     1.8410    -4.2100 c3         1 9NU       0.141800
     20 C31         -0.9200     3.3430    -4.0380 c3         1 9NU      -0.106433
     21 C30         -1.8520     1.5840    -5.5490 c3         1 9NU      -0.106433
     22 C29         -2.0440     1.3310    -3.0700 c3         1 9NU      -0.106433
     23 C            2.0690     2.0900    -3.1480 c3         1 9NU      -0.109100
     24 C3           2.0330    -0.8180    -3.4500 c          1 9NU       0.662100
     25 O            3.1890    -1.0730    -3.1840 o          1 9NU      -0.627100
     26 N            1.5270    -1.1530    -4.6530 ns         1 9NU      -0.562900
     27 C4           2.3390    -1.9200    -5.6010 c3         1 9NU       0.101700
     28 C7           3.2200    -0.9800    -6.4510 c3         1 9NU       0.075000
     29 N1           3.2270    -1.5120    -7.8220 n          1 9NU      -0.483800
     30 C6           2.4160    -2.7420    -7.8570 c3         1 9NU       0.045700
     31 C15          1.6520    -2.8320    -9.1520 c          1 9NU       0.651100
     32 N2           1.1530    -4.0150    -9.5610 ns         1 9NU      -0.592900
     33 C16          0.4090    -4.1020   -10.8200 c3         1 9NU       0.106300
     34 O2           1.4840    -1.8380    -9.8270 o          1 9NU      -0.559100
     35 C5           1.4400    -2.6090    -6.6620 c3         1 9NU      -0.101400
     36 C8           3.8660    -0.9620    -8.8740 c          1 9NU       0.698700
     37 O1           3.7220    -1.4310    -9.9860 o          1 9NU      -0.575100
     38 C9           4.7430     0.2120    -8.6750 ca         1 9NU      -0.136600
     39 C14          5.5120     0.6990    -9.7330 ca         1 9NU      -0.105000
     40 C13          6.3270     1.7960    -9.5410 ca         1 9NU      -0.141000
     41 C12          6.3840     2.4110    -8.3040 ca         1 9NU      -0.109000
     42 C11          5.6240     1.9320    -7.2510 ca         1 9NU      -0.141000
     43 C10          4.8000     0.8410    -7.4310 ca         1 9NU      -0.105000
     44 H3           2.8900     0.0220    -1.1650 hn         1 9NU       0.340500
     45 H23          0.1750     0.0020     2.4950 ha         1 9NU       0.146500
     46 H19          3.8950    -0.0080     0.3500 ha         1 9NU       0.146500
     47 H22          1.4140     0.0030     4.6220 ha         1 9NU       0.140000
     48 H241         3.5040     0.5150     5.7400 h1         1 9NU       0.065700
     49 H242         5.0370     0.5130     4.8550 h1         1 9NU       0.065700
     50 H20          5.1160    -0.0030     2.4890 ha         1 9NU       0.140000
     51 H25          6.4900    -1.4090     5.6630 h4         1 9NU       0.167000
     52 H27          3.4760    -4.4130     6.1840 h4         1 9NU       0.048100
     53 H26          6.0970    -3.9180     6.3440 ha         1 9NU       0.154000
     54 H2           0.2590    -0.7040    -2.2780 h1         1 9NU       0.098700
     55 H1           0.1600     1.7630    -2.2140 h1         1 9NU       0.071700
     56 HC1          2.5000     2.3360    -2.1850 hc         1 9NU       0.046367
     57 HC2          2.7800     1.5120    -3.7250 hc         1 9NU       0.046367
     58 HC3          1.8280     3.0020    -3.6800 hc         1 9NU       0.046367
     59 H311        -0.1570     3.6700    -4.7340 hc         1 9NU       0.045811
     60 H312        -1.8410     3.8790    -4.2340 hc         1 9NU       0.045811
     61 H313        -0.5940     3.5440    -3.0250 hc         1 9NU       0.045811
     62 H301        -2.0880     0.5310    -5.6370 hc         1 9NU       0.045811
     63 H302        -2.7650     2.1650    -5.6000 hc         1 9NU       0.045811
     64 H303        -1.1940     1.8750    -6.3590 hc         1 9NU       0.045811
     65 H291        -1.8630     0.2740    -2.9170 hc         1 9NU       0.045811
     66 H292        -3.0850     1.4860    -3.3250 hc         1 9NU       0.045811
     67 H293        -1.8100     1.8730    -2.1610 hc         1 9NU       0.045811
     68 H            0.5760    -0.9340    -4.8730 hn         1 9NU       0.340500
     69 H4           2.9500    -2.6520    -5.0870 h1         1 9NU       0.087700
     70 H71C         4.2290    -0.9660    -6.0580 h1         1 9NU       0.068700
     71 H72C         2.8020     0.0190    -6.4470 h1         1 9NU       0.068700
     72 H51C         0.5970    -1.9790    -6.9200 hc         1 9NU       0.067700
     73 H52C         1.1160    -3.5830    -6.3180 hc         1 9NU       0.067700
     74 H6           3.0500    -3.6110    -7.7260 h1         1 9NU       0.063700
     75 HA           1.2970    -4.8370    -9.0070 hn         1 9NU       0.306500
     76 H161         1.0670    -3.8600   -11.6460 h1         1 9NU       0.042033
     77 H162         0.0270    -5.1080   -10.9450 h1         1 9NU       0.042033
     78 H163        -0.4170    -3.4010   -10.8000 h1         1 9NU       0.042033
     79 H14          5.4680     0.2180   -10.7030 ha         1 9NU       0.159500
     80 H10          4.2060     0.4680    -6.6060 ha         1 9NU       0.159500
     81 H13          6.9240     2.1750   -10.3610 ha         1 9NU       0.131500
     82 H12          7.0270     3.2700    -8.1580 ha         1 9NU       0.128000
     83 H11          5.6710     2.4200    -6.2850 ha         1 9NU       0.131500
@<TRIPOS>BOND
     1     1     2 2
     2     2     3 1
     3     2    15 1
     4     3     4 ar
     5     3    14 ar
     6     4     5 ar
     7     5     6 ar
     8     6     7 1
     9     6    13 ar
    10     7     8 1
    11     8     9 1
    12     8    12 1
    13     9    10 2
    14    10    11 1
    15    11    12 2
    16    13    14 ar
    17    15    16 1
    18    16    17 1
    19    16    24 1
    20    17    18 1
    21    17    23 1
    22    18    19 1
    23    19    20 1
    24    19    21 1
    25    19    22 1
    26    24    25 2
    27    24    26 1
    28    26    27 1
    29    27    28 1
    30    27    35 1
    31    28    29 1
    32    29    30 1
    33    29    36 1
    34    30    31 1
    35    30    35 1
    36    31    32 1
    37    31    34 2
    38    32    33 1
    39    36    37 2
    40    36    38 1
    41    38    39 ar
    42    38    43 ar
    43    39    40 ar
    44    40    41 ar
    45    41    42 ar
    46    42    43 ar
    47    15    44 1
    48     4    45 1
    49    14    46 1
    50     5    47 1
    51     7    48 1
    52     7    49 1
    53    13    50 1
    54    12    51 1
    55    10    52 1
    56    11    53 1
    57    16    54 1
    58    17    55 1
    59    23    56 1
    60    23    57 1
    61    23    58 1
    62    20    59 1
    63    20    60 1
    64    20    61 1
    65    21    62 1
    66    21    63 1
    67    21    64 1
    68    22    65 1
    69    22    66 1
    70    22    67 1
    71    26    68 1
    72    27    69 1
    73    28    70 1
    74    28    71 1
    75    35    72 1
    76    35    73 1
    77    30    74 1
    78    32    75 1
    79    33    76 1
    80    33    77 1
    81    33    78 1
    82    39    79 1
    83    43    80 1
    84    40    81 1
    85    41    82 1
    86    42    83 1
@<TRIPOS>SUBSTRUCTURE
     1 9NU         1 TEMP              0 ****  ****    0 ROOT
