@<TRIPOS>MOLECULE
9NU
   83    86     1     0     0
SMALL
bcc


@<TRIPOS>ATOM
      1 O3           0.0000     0.0000     0.0000 o          1 9NU      -0.660100
      2 C17          1.2150     0.0000     0.0000 c          1 9NU       0.597700
      3 C18          1.9530     0.0000     1.2810 ca         1 9NU      -0.148600
      4 C23          1.2580     0.0020     2.4910 ca         1 9NU      -0.059500
      5 C22          1.9530     0.0020     3.6830 ca         1 9NU      -0.083500
      6 C21          3.3370     0.0020     3.6810 ca         1 9NU      -0.103300
      7 C24          4.0900     0.0030     4.9850 c3         1 9NU       0.054600
      8 N4           4.3330    -1.3770     5.4100 na         1 9NU       0.482400
      9 N5           3.3600    -2.3710     5.5820 nc         1 9NU      -0.646800
     10 C27          3.9590    -3.4680     5.9670 cd         1 9NU       0.394200
     11 C26          5.3310    -3.2090     6.0530 cd         1 9NU      -0.334300
     12 C25          5.5350    -1.9190     5.7000 cc         1 9NU      -0.249300
     13 C20          4.0330    -0.0000     2.4850 ca         1 9NU      -0.083500
     14 C19          3.3490    -0.0060     1.2860 ca         1 9NU      -0.059500
     15 N3           1.8900    -0.0080    -1.1660 ns         1 9NU      -0.174900
     16 C2           1.1620    -0.1260    -2.4330 c3         1 9NU      -0.065300
     17 C1           0.7940     1.2690    -2.9410 c3         1 9NU       0.149100
     18 O4           0.0950     1.1550    -4.1830 os         1 9NU      -0.414600
     19 C28         -1.1580     1.8410    -4.2100 c3         1 9NU       0.155800
     20 C31         -0.9200     3.3430    -4.0380 c3         1 9NU      -0.024433
     21 C30         -1.8520     1.5840    -5.5490 c3         1 9NU      -0.024433
     22 C29         -2.0440     1.3310    -3.0700 c3         1 9NU      -0.024433
     23 C            2.0690     2.0900    -3.1480 c3         1 9NU      -0.033100
     24 C3           2.0330    -0.8180    -3.4500 c          1 9NU       0.578100
     25 O            3.1890    -1.0730    -3.1840 o          1 9NU      -0.667100
     26 N            1.5270    -1.1530    -4.6530 ns         1 9NU      -0.168900
     27 C4           2.3390    -1.9200    -5.6010 c3         1 9NU       0.009700
     28 C7           3.2200    -0.9800    -6.4510 c3         1 9NU       0.006000
     29 N1           3.2270    -1.5120    -7.8220 n          1 9NU      -0.142800
     30 C6           2.4160    -2.7420    -7.8570 c3         1 9NU      -0.029300
     31 C15          1.6520    -2.8320    -9.1520 c          1 9NU       0.559100
     32 N2           1.1530    -4.0150    -9.5610 ns         1 9NU      -0.197900
     33 C16          0.4090    -4.1020   -10.8200 c3         1 9NU       0.088300
     34 O2           1.4840    -1.8380    -9.8270 o          1 9NU      -0.596100
     35 C5           1.4400    -2.6090    -6.6620 c3         1 9NU      -0.040400
     36 C8           3.8660    -0.9620    -8.8740 c          1 9NU       0.630700
     37 O1           3.7220    -1.4310    -9.9860 o          1 9NU      -0.614100
     38 C9           4.7430     0.2120    -8.6750 ca         1 9NU      -0.141600
     39 C14          5.5120     0.6990    -9.7330 ca         1 9NU      -0.097500
     40 C13          6.3270     1.7960    -9.5410 ca         1 9NU      -0.109500
     41 C12          6.3840     2.4110    -8.3040 ca         1 9NU      -0.084000
     42 C11          5.6240     1.9320    -7.2510 ca         1 9NU      -0.109500
     43 C10          4.8000     0.8410    -7.4310 ca         1 9NU      -0.097500
     44 H3           2.8900     0.0220    -1.1650 hn         1 9NU       0.206500
     45 H23          0.1750     0.0020     2.4950 ha         1 9NU       0.119500
     46 H19          3.8950    -0.0080     0.3500 ha         1 9NU       0.119500
     47 H22          1.4140     0.0030     4.6220 ha         1 9NU       0.112500
     48 H241         3.5040     0.5150     5.7400 h1         1 9NU       0.033200
     49 H242         5.0370     0.5130     4.8550 h1         1 9NU       0.033200
     50 H20          5.1160    -0.0030     2.4890 ha         1 9NU       0.112500
     51 H25          6.4900    -1.4090     5.6630 h4         1 9NU       0.142000
     52 H27          3.4760    -4.4130     6.1840 h4         1 9NU       0.003100
     53 H26          6.0970    -3.9180     6.3440 ha         1 9NU       0.133000
     54 H2           0.2590    -0.7040    -2.2780 h1         1 9NU       0.072700
     55 H1           0.1600     1.7630    -2.2140 h1         1 9NU       0.049700
     56 HC1          2.5000     2.3360    -2.1850 hc         1 9NU       0.017367
     57 HC2          2.7800     1.5120    -3.7250 hc         1 9NU       0.017367
     58 HC3          1.8280     3.0020    -3.6800 hc         1 9NU       0.017367
     59 H311        -0.1570     3.6700    -4.7340 hc         1 9NU       0.016144
     60 H312        -1.8410     3.8790    -4.2340 hc         1 9NU       0.016144
     61 H313        -0.5940     3.5440    -3.0250 hc         1 9NU       0.016144
     62 H301        -2.0880     0.5310    -5.6370 hc         1 9NU       0.016144
     63 H302        -2.7650     2.1650    -5.6000 hc         1 9NU       0.016144
     64 H303        -1.1940     1.8750    -6.3590 hc         1 9NU       0.016144
     65 H291        -1.8630     0.2740    -2.9170 hc         1 9NU       0.016144
     66 H292        -3.0850     1.4860    -3.3250 hc         1 9NU       0.016144
     67 H293        -1.8100     1.8730    -2.1610 hc         1 9NU       0.016144
     68 H            0.5760    -0.9340    -4.8730 hn         1 9NU       0.202500
     69 H4           2.9500    -2.6520    -5.0870 h1         1 9NU       0.062700
     70 H71C         4.2290    -0.9660    -6.0580 h1         1 9NU       0.046700
     71 H72C         2.8020     0.0190    -6.4470 h1         1 9NU       0.046700
     72 H51C         0.5970    -1.9790    -6.9200 hc         1 9NU       0.035200
     73 H52C         1.1160    -3.5830    -6.3180 hc         1 9NU       0.035200
     74 H6           3.0500    -3.6110    -7.7260 h1         1 9NU       0.035700
     75 HA           1.2970    -4.8370    -9.0070 hn         1 9NU       0.164500
     76 H161         1.0670    -3.8600   -11.6460 h1         1 9NU       0.010033
     77 H162         0.0270    -5.1080   -10.9450 h1         1 9NU       0.010033
     78 H163        -0.4170    -3.4010   -10.8000 h1         1 9NU       0.010033
     79 H14          5.4680     0.2180   -10.7030 ha         1 9NU       0.141000
     80 H10          4.2060     0.4680    -6.6060 ha         1 9NU       0.141000
     81 H13          6.9240     2.1750   -10.3610 ha         1 9NU       0.103500
     82 H12          7.0270     3.2700    -8.1580 ha         1 9NU       0.100000
     83 H11          5.6710     2.4200    -6.2850 ha         1 9NU       0.103500
@<TRIPOS>BOND
     1     1     2 2   
     2     2     3 1   
     3     2    15 1   
     4     3     4 ar  
     5     3    14 ar  
     6     4     5 ar  
     7     4    45 1   
     8     5     6 ar  
     9     5    47 1   
    10     6     7 1   
    11     6    13 ar  
    12     7     8 1   
    13     7    48 1   
    14     7    49 1   
    15     8     9 1   
    16     8    12 1   
    17     9    10 2   
    18    10    11 1   
    19    10    52 1   
    20    11    12 2   
    21    11    53 1   
    22    12    51 1   
    23    13    14 ar  
    24    13    50 1   
    25    14    46 1   
    26    15    16 1   
    27    15    44 1   
    28    16    17 1   
    29    16    24 1   
    30    16    54 1   
    31    17    18 1   
    32    17    23 1   
    33    17    55 1   
    34    18    19 1   
    35    19    20 1   
    36    19    21 1   
    37    19    22 1   
    38    20    59 1   
    39    20    60 1   
    40    20    61 1   
    41    21    62 1   
    42    21    63 1   
    43    21    64 1   
    44    22    65 1   
    45    22    66 1   
    46    22    67 1   
    47    23    56 1   
    48    23    57 1   
    49    23    58 1   
    50    24    25 2   
    51    24    26 1   
    52    26    27 1   
    53    26    68 1   
    54    27    28 1   
    55    27    35 1   
    56    27    69 1   
    57    28    29 1   
    58    28    70 1   
    59    28    71 1   
    60    29    30 1   
    61    29    36 1   
    62    30    31 1   
    63    30    35 1   
    64    30    74 1   
    65    31    32 1   
    66    31    34 2   
    67    32    33 1   
    68    32    75 1   
    69    33    76 1   
    70    33    77 1   
    71    33    78 1   
    72    35    72 1   
    73    35    73 1   
    74    36    37 2   
    75    36    38 1   
    76    38    39 ar  
    77    38    43 ar  
    78    39    40 ar  
    79    39    79 1   
    80    40    41 ar  
    81    40    81 1   
    82    41    42 ar  
    83    41    82 1   
    84    42    43 ar  
    85    42    83 1   
    86    43    80 1   
@<TRIPOS>SUBSTRUCTURE
     1 9NU         1 TEMP              0 ****  ****    0 ROOT
