@<TRIPOS>MOLECULE
molecule
   56    59     1     0     0
SMALL
bcc


@<TRIPOS>ATOM
      1 C4           0.0000     0.0000     0.0000 ca         1 9O2       0.483600
      2 C5           1.4180     0.0000     0.0000 ca         1 9O2      -0.320600
      3 C6           2.0890     0.0000     1.2470 ca         1 9O2       0.746200
      4 N1           1.3590     0.0000     2.3530 nb         1 9O2      -0.815000
      5 N3          -0.6460     0.0010     1.1740 nb         1 9O2      -0.755000
      6 CAJ         -6.8770    -1.6490     2.3680 c3         1 9O2      -0.081100
      7 CAH         -6.4620    -0.7580     3.5420 c3         1 9O2      -0.155400
      8 CAG         -4.9410    -0.6170     3.5610 c          1 9O2       0.674100
      9 OAI         -4.3110    -0.8770     2.5940 o          1 9O2      -0.541100
     10 CAN         -2.8250     0.0240     4.7660 ca         1 9O2       0.060600
     11 CAO         -2.1180    -0.0000     3.5730 ca         1 9O2      -0.116000
     12 CAM         -2.1530     0.1840     5.9670 ca         1 9O2      -0.160000
     13 CAL         -0.7750     0.3200     5.9760 ca         1 9O2      -0.124000
     14 CAK         -0.0680     0.2960     4.7840 ca         1 9O2      -0.114000
     15 CAP         -0.7400     0.1360     3.5830 cp         1 9O2      -0.119500
     16 C2           0.0290     0.0000     2.3090 cp         1 9O2       0.787500
     17 CBC         -0.6870    -0.0060    -1.2200 ca         1 9O2      -0.199300
     18 CBD          0.0270    -0.0060    -2.4010 ca         1 9O2       0.192600
     19 NAQ         -0.6850     0.1210    -3.6600 nv         1 9O2      -0.999200
     20 CBE          1.4280     0.0010    -2.3890 ca         1 9O2      -0.157000
     21 CAZ          2.1150    -0.0010    -1.2150 ca         1 9O2      -0.086000
     22 NAS          3.5300     0.0520     1.3910 nu         1 9O2      -0.928900
     23 CAU          4.1240     0.1150     2.7120 c3         1 9O2       0.248800
     24 CAR          5.6110     0.4390     2.5860 c3         1 9O2      -0.054100
     25 CAT          6.2360     0.5050     3.9750 ca         1 9O2      -0.084300
     26 CAA          6.3180     1.7180     4.6400 ca         1 9O2      -0.121500
     27 CAB          6.8860     1.7780     5.9010 ca         1 9O2      -0.126000
     28 CAC          7.3720     0.6270     6.4980 ca         1 9O2      -0.128000
     29 CAD          7.2900    -0.5860     5.8330 ca         1 9O2      -0.126000
     30 CAE          6.7220    -0.6470     4.5720 ca         1 9O2      -0.121500
     31 H1          -7.9510    -1.7850     2.3800 hc         1 9O2       0.046033
     32 H2          -6.5830    -1.1800     1.4370 hc         1 9O2       0.046033
     33 H3          -6.3900    -2.6130     2.4560 hc         1 9O2       0.046033
     34 H4          -6.9140     0.2200     3.4300 hc         1 9O2       0.061200
     35 H5          -6.7950    -1.2060     4.4700 hc         1 9O2       0.061200
     36 H6          -4.7990     0.0430     5.5880 hn         1 9O2       0.318500
     37 H7          -2.6440    -0.1250     2.6340 ha         1 9O2       0.202000
     38 H8          -2.7060     0.2030     6.8980 ha         1 9O2       0.125000
     39 H9          -0.2490     0.4450     6.9150 ha         1 9O2       0.132000
     40 H10          1.0100     0.4030     4.7920 ha         1 9O2       0.151000
     41 H11         -1.7700    -0.0180    -1.2310 ha         1 9O2       0.162000
     42 H12         -0.8130    -0.6810    -4.2460 hn         1 9O2       0.429800
     43 H13         -1.0450     1.0100    -3.9440 hn         1 9O2       0.429800
     44 H14          1.9770     0.0000    -3.3220 ha         1 9O2       0.136000
     45 H15          3.1990    -0.0010    -1.2170 ha         1 9O2       0.124000
     46 H16          4.1140     0.0590     0.5790 hn         1 9O2       0.441800
     47 H17          3.6340     0.8880     3.2920 h1         1 9O2       0.054700
     48 H18          4.0030    -0.8400     3.2080 h1         1 9O2       0.054700
     49 H19          5.7320     1.3950     2.0900 hc         1 9O2       0.050700
     50 H20          6.1010    -0.3330     2.0060 hc         1 9O2       0.050700
     51 H21          5.9390     2.6180     4.1730 ha         1 9O2       0.131500
     52 H22          6.9500     2.7260     6.4210 ha         1 9O2       0.130500
     53 H23          7.8160     0.6740     7.4850 ha         1 9O2       0.130000
     54 H24          7.6700    -1.4860     6.3000 ha         1 9O2       0.130500
     55 H25          6.6580    -1.5950     4.0520 ha         1 9O2       0.131500
     56 NAF         -4.2710    -0.1370     4.7570 ns         1 9O2      -0.538100
@<TRIPOS>BOND
     1     6     7 1
     2     7     8 1
     3    19    18 1
     4     9     8 2
     5     8    56 1
     6    18    17 ar
     7    18    20 ar
     8    17     1 ar
     9    56    10 1
    10    20    21 ar
    11     1     5 ar
    12     1     2 ar
    13     5    16 ar
    14    11    10 ar
    15    11    15 ar
    16    10    12 ar
    17    21     2 ar
    18     2     3 ar
    19    16    15 1
    20    16     4 ar
    21    15    14 ar
    22    12    13 ar
    23     3     4 ar
    24     3    22 1
    25    14    13 ar
    26    22    23 1
    27    23    24 1
    28    24    25 1
    29    26    25 ar
    30    26    27 ar
    31    25    30 ar
    32    27    28 ar
    33    30    29 ar
    34    28    29 ar
    35     6    31 1
    36     6    32 1
    37     6    33 1
    38     7    34 1
    39     7    35 1
    40    56    36 1
    41    11    37 1
    42    12    38 1
    43    13    39 1
    44    14    40 1
    45    17    41 1
    46    19    42 1
    47    19    43 1
    48    20    44 1
    49    21    45 1
    50    22    46 1
    51    23    47 1
    52    23    48 1
    53    24    49 1
    54    24    50 1
    55    26    51 1
    56    27    52 1
    57    28    53 1
    58    29    54 1
    59    30    55 1
@<TRIPOS>SUBSTRUCTURE
     1 9O2         1 TEMP              0 ****  ****    0 ROOT
