@<TRIPOS>MOLECULE
9O2
   56    59     1     0     0
SMALL
bcc


@<TRIPOS>ATOM
      1 C4           0.0000     0.0000     0.0000 ca         1 9O2       0.439600
      2 C5           1.4180     0.0000     0.0000 ca         1 9O2      -0.307600
      3 C6           2.0890     0.0000     1.2470 ca         1 9O2       0.565200
      4 N1           1.3590     0.0000     2.3530 nb         1 9O2      -0.699000
      5 N3          -0.6460     0.0010     1.1740 nb         1 9O2      -0.647000
      6 CAJ         -6.8770    -1.6490     2.3680 c3         1 9O2       0.017900
      7 CAH         -6.4620    -0.7580     3.5420 c3         1 9O2      -0.098400
      8 CAG         -4.9410    -0.6170     3.5610 c          1 9O2       0.601100
      9 OAI         -4.3110    -0.8770     2.5940 o          1 9O2      -0.573100
     10 CAN         -2.8250     0.0240     4.7660 ca         1 9O2      -0.067400
     11 CAO         -2.1180    -0.0000     3.5730 ca         1 9O2      -0.112000
     12 CAM         -2.1530     0.1840     5.9670 ca         1 9O2      -0.134000
     13 CAL         -0.7750     0.3200     5.9760 ca         1 9O2      -0.095000
     14 CAK         -0.0680     0.2960     4.7840 ca         1 9O2      -0.092000
     15 CAP         -0.7400     0.1360     3.5830 cp         1 9O2      -0.133500
     16 C2           0.0290     0.0000     2.3090 cp         1 9O2       0.705500
     17 CBC         -0.6870    -0.0060    -1.2200 ca         1 9O2      -0.169300
     18 CBD          0.0270    -0.0060    -2.4010 ca         1 9O2       0.058600
     19 NAQ         -0.6850     0.1210    -3.6600 nv         1 9O2      -0.572200
     20 CBE          1.4280     0.0010    -2.3890 ca         1 9O2      -0.125000
     21 CAZ          2.1150    -0.0010    -1.2150 ca         1 9O2      -0.061000
     22 NAS          3.5300     0.0520     1.3910 nu         1 9O2      -0.534900
     23 CAU          4.1240     0.1150     2.7120 c3         1 9O2       0.171800
     24 CAR          5.6110     0.4390     2.5860 c3         1 9O2       0.020900
     25 CAT          6.2360     0.5050     3.9750 ca         1 9O2      -0.090300
     26 CAA          6.3180     1.7180     4.6400 ca         1 9O2      -0.095000
     27 CAB          6.8860     1.7780     5.9010 ca         1 9O2      -0.098000
     28 CAC          7.3720     0.6270     6.4980 ca         1 9O2      -0.102000
     29 CAD          7.2900    -0.5860     5.8330 ca         1 9O2      -0.098000
     30 CAE          6.7220    -0.6470     4.5720 ca         1 9O2      -0.095000
     31 H1          -7.9510    -1.7850     2.3800 hc         1 9O2       0.009700
     32 H2          -6.5830    -1.1800     1.4370 hc         1 9O2       0.009700
     33 H3          -6.3900    -2.6130     2.4560 hc         1 9O2       0.009700
     34 H4          -6.9140     0.2200     3.4300 hc         1 9O2       0.026200
     35 H5          -6.7950    -1.2060     4.4700 hc         1 9O2       0.026200
     36 H6          -4.7990     0.0430     5.5880 hn         1 9O2       0.172500
     37 H7          -2.6440    -0.1250     2.6340 ha         1 9O2       0.185000
     38 H8          -2.7060     0.2030     6.8980 ha         1 9O2       0.101000
     39 H9          -0.2490     0.4450     6.9150 ha         1 9O2       0.101000
     40 H10          1.0100     0.4030     4.7920 ha         1 9O2       0.122000
     41 H11         -1.7700    -0.0180    -1.2310 ha         1 9O2       0.130000
     42 H12         -0.8130    -0.6810    -4.2460 hn         1 9O2       0.275800
     43 H13         -1.0450     1.0100    -3.9440 hn         1 9O2       0.275800
     44 H14          1.9770     0.0000    -3.3220 ha         1 9O2       0.108000
     45 H15          3.1990    -0.0010    -1.2170 ha         1 9O2       0.099000
     46 H16          4.1140     0.0590     0.5790 hn         1 9O2       0.296800
     47 H17          3.6340     0.8880     3.2920 h1         1 9O2       0.027700
     48 H18          4.0030    -0.8400     3.2080 h1         1 9O2       0.027700
     49 H19          5.7320     1.3950     2.0900 hc         1 9O2       0.018700
     50 H20          6.1010    -0.3330     2.0060 hc         1 9O2       0.018700
     51 H21          5.9390     2.6180     4.1730 ha         1 9O2       0.106000
     52 H22          6.9500     2.7260     6.4210 ha         1 9O2       0.103000
     53 H23          7.8160     0.6740     7.4850 ha         1 9O2       0.102000
     54 H24          7.6700    -1.4860     6.3000 ha         1 9O2       0.103000
     55 H25          6.6580    -1.5950     4.0520 ha         1 9O2       0.106000
     56 NAF         -4.2710    -0.1370     4.7570 ns         1 9O2      -0.140100
@<TRIPOS>BOND
     1     1     2 ar  
     2     1     5 ar  
     3     1    17 ar  
     4     2     3 ar  
     5     2    21 ar  
     6     3     4 ar  
     7     3    22 1   
     8     4    16 ar  
     9     5    16 ar  
    10     6     7 1   
    11     6    31 1   
    12     6    32 1   
    13     6    33 1   
    14     7     8 1   
    15     7    34 1   
    16     7    35 1   
    17     8     9 2   
    18     8    56 1   
    19    10    11 ar  
    20    10    12 ar  
    21    10    56 1   
    22    11    15 ar  
    23    11    37 1   
    24    12    13 ar  
    25    12    38 1   
    26    13    14 ar  
    27    13    39 1   
    28    14    15 ar  
    29    14    40 1   
    30    15    16 1   
    31    17    18 ar  
    32    17    41 1   
    33    18    19 1   
    34    18    20 ar  
    35    19    42 1   
    36    19    43 1   
    37    20    21 ar  
    38    20    44 1   
    39    21    45 1   
    40    22    23 1   
    41    22    46 1   
    42    23    24 1   
    43    23    47 1   
    44    23    48 1   
    45    24    25 1   
    46    24    49 1   
    47    24    50 1   
    48    25    26 ar  
    49    25    30 ar  
    50    26    27 ar  
    51    26    51 1   
    52    27    28 ar  
    53    27    52 1   
    54    28    29 ar  
    55    28    53 1   
    56    29    30 ar  
    57    29    54 1   
    58    30    55 1   
    59    36    56 1   
@<TRIPOS>SUBSTRUCTURE
     1 9O2         1 TEMP              0 ****  ****    0 ROOT
