@<TRIPOS>MOLECULE
9O5
   57    60     1     0     0
SMALL
bcc


@<TRIPOS>ATOM
      1 C4           0.0000     0.0000     0.0000 ca         1 9O5       0.439600
      2 C5           1.4170     0.0000     0.0000 ca         1 9O5      -0.300600
      3 C6           2.0880     0.0000     1.2470 ca         1 9O5       0.566200
      4 N1           1.3600    -0.0000     2.3540 nb         1 9O5      -0.706000
      5 N3          -0.6470    -0.0050     1.1750 nb         1 9O5      -0.661000
      6 CAB         -7.3460    -2.3860     4.4120 c3         1 9O5      -0.095100
      7 CAC         -6.4910    -1.1310     4.5350 c          1 9O5       0.604100
      8 OAA         -7.0030    -0.0620     4.5300 o          1 9O5      -0.548100
      9 CAD         -4.9810    -1.2520     4.6990 c3         1 9O5      -0.125400
     10 CAO         -2.8440     0.0150     4.7500 ca         1 9O5      -0.111300
     11 CAP         -2.1190     0.0110     3.5750 ca         1 9O5      -0.064000
     12 CAN         -2.1860     0.0120     5.9680 ca         1 9O5      -0.086000
     13 CAM         -0.8040     0.0050     6.0110 ca         1 9O5      -0.115000
     14 CAL         -0.0780     0.0010     4.8330 ca         1 9O5      -0.067000
     15 CAQ         -0.7350     0.0040     3.6150 cp         1 9O5      -0.153500
     16 C2           0.0290     0.0000     2.3090 cp         1 9O5       0.707500
     17 CBC         -0.6870     0.0000    -1.2190 ca         1 9O5      -0.169300
     18 CBD          0.0270    -0.0010    -2.4000 ca         1 9O5       0.063600
     19 NAU         -0.6590    -0.1920    -3.6640 nv         1 9O5      -0.578200
     20 CBE          1.4270     0.0000    -2.3890 ca         1 9O5      -0.125000
     21 CAZ          2.1140    -0.0010    -1.2140 ca         1 9O5      -0.059000
     22 NAT          3.5250    -0.0890     1.4450 nu         1 9O5      -0.532900
     23 CAS          4.0730    -0.1270     2.7930 c3         1 9O5       0.173800
     24 CAR          5.5830    -0.3610     2.7220 c3         1 9O5       0.022900
     25 CAK          6.1590    -0.4020     4.1370 ca         1 9O5      -0.091300
     26 CAF          6.2740    -1.6110     4.8030 ca         1 9O5      -0.095000
     27 CAG          6.7960    -1.6490     6.0870 ca         1 9O5      -0.097000
     28 CAH          7.2030    -0.4790     6.7030 ca         1 9O5      -0.101000
     29 CAI          7.0890     0.7300     6.0390 ca         1 9O5      -0.097000
     30 CAJ          6.5670     0.7690     4.7550 ca         1 9O5      -0.095000
     31 H1          -8.3920    -2.1070     4.3640 hc         1 9O5       0.022700
     32 H2          -7.1800    -3.0220     5.2730 hc         1 9O5       0.022700
     33 H3          -7.0740    -2.9210     3.5100 hc         1 9O5       0.022700
     34 H4          -4.7580    -1.7520     5.6330 hc         1 9O5       0.035700
     35 H5          -4.5730    -1.8260     3.8760 hc         1 9O5       0.035700
     36 H6          -4.6530     0.6700     3.8090 hc         1 9O5       0.029700
     37 H7          -4.7030     0.6830     5.5770 hc         1 9O5       0.029700
     38 H8          -2.6340     0.0140     2.6210 ha         1 9O5       0.129000
     39 H9          -2.7550     0.0150     6.8900 ha         1 9O5       0.103000
     40 H10         -0.2920     0.0020     6.9650 ha         1 9O5       0.103000
     41 H11          1.0050    -0.0050     4.8650 ha         1 9O5       0.120000
     42 H12         -1.7700     0.0160    -1.2300 ha         1 9O5       0.127000
     43 H13         -0.8500    -1.1170    -3.9950 hn         1 9O5       0.277300
     44 H14         -0.9450     0.6020    -4.2030 hn         1 9O5       0.277300
     45 H15          1.9760    -0.0010    -3.3220 ha         1 9O5       0.111000
     46 H16          3.1980    -0.0010    -1.2160 ha         1 9O5       0.100000
     47 H17          4.1380    -0.1060     0.6550 hn         1 9O5       0.293800
     48 H18          3.6080    -0.9320     3.3490 h1         1 9O5       0.028200
     49 H19          3.8760     0.8160     3.2890 h1         1 9O5       0.028200
     50 H20          6.0480     0.4440     2.1660 hc         1 9O5       0.018700
     51 H21          5.7800    -1.3040     2.2250 hc         1 9O5       0.018700
     52 H22          5.9550    -2.5270     4.3200 ha         1 9O5       0.106000
     53 H23          6.8850    -2.5950     6.6070 ha         1 9O5       0.103000
     54 H24          7.6110    -0.5090     7.7060 ha         1 9O5       0.103000
     55 H25          7.4080     1.6460     6.5210 ha         1 9O5       0.103000
     56 H26          6.4780     1.7150     4.2350 ha         1 9O5       0.106000
     57 CAE         -4.3600     0.1380     4.7060 c3         1 9O5       0.042900
@<TRIPOS>BOND
     1     1     2 ar  
     2     1     5 ar  
     3     1    17 ar  
     4     2     3 ar  
     5     2    21 ar  
     6     3     4 ar  
     7     3    22 1   
     8     4    16 ar  
     9     5    16 ar  
    10     6     7 1   
    11     6    31 1   
    12     6    32 1   
    13     6    33 1   
    14     7     8 2   
    15     7     9 1   
    16     9    34 1   
    17     9    35 1   
    18     9    57 1   
    19    10    11 ar  
    20    10    12 ar  
    21    10    57 1   
    22    11    15 ar  
    23    11    38 1   
    24    12    13 ar  
    25    12    39 1   
    26    13    14 ar  
    27    13    40 1   
    28    14    15 ar  
    29    14    41 1   
    30    15    16 1   
    31    17    18 ar  
    32    17    42 1   
    33    18    19 1   
    34    18    20 ar  
    35    19    43 1   
    36    19    44 1   
    37    20    21 ar  
    38    20    45 1   
    39    21    46 1   
    40    22    23 1   
    41    22    47 1   
    42    23    24 1   
    43    23    48 1   
    44    23    49 1   
    45    24    25 1   
    46    24    50 1   
    47    24    51 1   
    48    25    26 ar  
    49    25    30 ar  
    50    26    27 ar  
    51    26    52 1   
    52    27    28 ar  
    53    27    53 1   
    54    28    29 ar  
    55    28    54 1   
    56    29    30 ar  
    57    29    55 1   
    58    30    56 1   
    59    36    57 1   
    60    37    57 1   
@<TRIPOS>SUBSTRUCTURE
     1 9O5         1 TEMP              0 ****  ****    0 ROOT
