@<TRIPOS>MOLECULE
molecule
   39    41     1     0     0
SMALL
bcc


@<TRIPOS>ATOM
      1 N1           0.0000     0.0000     0.0000 nb         1 9O7      -0.794000
      2 C2           1.3210     0.0000     0.0000 ca         1 9O7       0.615900
      3 N3           2.0280     0.0000     1.1100 nb         1 9O7      -0.789000
      4 C4           1.4270     0.0010     2.2950 ca         1 9O7       0.442800
      5 C5           0.0230     0.0010     2.3500 ca         1 9O7      -0.146200
      6 C6          -0.6880     0.0000     1.1380 ca         1 9O7       0.659200
      7 N6          -2.0720     0.0000     1.1270 nv         1 9O7      -1.063500
      8 N7          -0.3260     0.0010     3.6580 nc         1 9O7      -0.615100
      9 C8           0.7480     0.0010     4.3930 cd         1 9O7       0.453700
     10 N9           1.8560     0.0010     3.5990 na         1 9O7      -0.249000
     11 PA           3.4230     3.7310     7.0410 p5         1 9O7       1.422800
     12 PB           1.8000     5.1950     9.0430 p5         1 9O7       1.511800
     13 PG          -0.1880     5.2000    11.2420 p5         1 9O7       1.343900
     14 C1'          3.2480     0.0000     4.0530 c3         1 9O7       0.247800
     15 O1A          4.5850     3.6330     7.9530 o          1 9O7      -0.847500
     16 O1B          1.5780     6.6460     8.3800 o          1 9O7      -0.872000
     17 C2'          3.7860     1.4450     4.0960 c3         1 9O7       0.077100
     18 O2'          4.9080     1.5860     3.2230 oh         1 9O7      -0.626800
     19 O2A          3.7040     4.8660     5.9350 o          1 9O7      -0.847500
     20 O2B          2.9420     5.2520     9.9820 o          1 9O7      -0.872000
     21 O2G         -0.1540     6.6750    11.3610 o          1 9O7      -0.874833
     22 C3'          4.2150     1.6470     5.5690 c3         1 9O7       0.212100
     23 O3'          3.1930     2.3150     6.3120 os         1 9O7      -0.574200
     24 O3A          2.1080     4.1190     7.8860 os         1 9O7      -0.720800
     25 O3B          0.4700     4.7600     9.8390 os         1 9O7      -0.736800
     26 O3G          0.6440     4.5430    12.4540 o          1 9O7      -0.874833
     27 C4'          4.3910     0.1870     6.0590 c3         1 9O7       0.106400
     28 O4'          3.3260    -0.5230     5.3890 os         1 9O7      -0.430600
     29 O1G         -1.7140     4.6930    11.3010 o          1 9O7      -0.874833
     30 H1           1.8410    -0.0000    -0.9500 h5         1 9O7       0.018100
     31 H2          -2.5730    -0.8660     1.1510 hn         1 9O7       0.414300
     32 H3          -2.5720     0.8650     1.0630 hn         1 9O7       0.414300
     33 H4           0.7600     0.0010     5.4770 h5         1 9O7       0.110800
     34 H5           3.8580    -0.5990     3.3880 h2         1 9O7       0.061700
     35 H7           3.0030     2.1460     3.8320 h1         1 9O7       0.098700
     36 H8           4.8040     2.3630     2.6990 ho         1 9O7       0.411000
     37 H10          5.1540     2.1840     5.6240 h1         1 9O7       0.075700
     38 H12          4.2680     0.1300     7.1330 h1         1 9O7       0.054700
     39 H13          5.3560    -0.2010     5.7560 h1         1 9O7       0.054700
@<TRIPOS>BOND
     1    28    27 1
     2    28    14 1
     3    27    22 1
     4     2     3 ar
     5     2     1 ar
     6     3     4 ar
     7     1     6 ar
     8    15    11 1
     9     4     5 ar
    10     4    10 1
    11     6     7 1
    12     6     5 ar
    13    19    11 1
    14    14    10 1
    15    14    17 1
    16     5     8 1
    17    10     9 1
    18    22    23 1
    19    22    17 1
    20     9     8 2
    21    11    23 1
    22    11    24 1
    23    17    18 1
    24    24    12 1
    25    20    12 1
    26    21    13 1
    27    12    16 1
    28    12    25 1
    29    13    25 1
    30    13    26 1
    31    13    29 1
    32     2    30 1
    33     7    31 1
    34     7    32 1
    35     9    33 1
    36    14    34 1
    37    17    35 1
    38    18    36 1
    39    22    37 1
    40    27    38 1
    41    27    39 1
@<TRIPOS>SUBSTRUCTURE
     1 9O7         1 TEMP              0 ****  ****    0 ROOT
