@<TRIPOS>MOLECULE
molecule
   28    27     1     0     0
SMALL
bcc


@<TRIPOS>ATOM
      1 O9           0.0000     0.0000     0.0000 o          1 9OD      -0.529100
      2 C9           1.2080     0.0000     0.0000 c          1 9OD       0.558100
      3 C10          1.9600     0.0000     1.3050 c3         1 9OD      -0.199100
      4 C8           1.9610    -0.0070    -1.3040 c3         1 9OD      -0.183400
      5 C7           0.9680    -0.0110    -2.4680 c3         1 9OD      -0.073400
      6 C6           1.7340    -0.0180    -3.7930 c3         1 9OD      -0.090400
      7 C5           0.7400    -0.0230    -4.9560 c3         1 9OD      -0.087400
      8 C4           1.5060    -0.0300    -6.2810 c3         1 9OD       0.002800
      9 C3           0.5270    -0.0360    -7.4260 c2         1 9OD      -0.352200
     10 C2           0.6490     0.8530    -8.4100 ce         1 9OD      -0.235200
     11 C1           1.9050     1.5980    -8.5750 c          1 9OD       0.965800
     12 OE1          1.9800     2.6010    -9.4730 o          1 9OD      -0.796300
     13 OE2          2.8750     1.3100    -7.9030 o          1 9OD      -0.796300
     14 H10          1.2550     0.0170     2.1280 hc         1 9OD       0.055033
     15 H10A         2.5700    -0.8930     1.3700 hc         1 9OD       0.055033
     16 H10B         2.5950     0.8760     1.3560 hc         1 9OD       0.055033
     17 H8           2.5850     0.8770    -1.3660 hc         1 9OD       0.062200
     18 H8A          2.5840    -0.8920    -1.3570 hc         1 9OD       0.062200
     19 H7           0.3440    -0.8950    -2.4070 hc         1 9OD       0.050700
     20 H7A          0.3450     0.8740    -2.4150 hc         1 9OD       0.050700
     21 H6           2.3570     0.8660    -3.8540 hc         1 9OD       0.036200
     22 H6A          2.3560    -0.9030    -3.8460 hc         1 9OD       0.036200
     23 H5           0.1160    -0.9070    -4.8940 hc         1 9OD       0.037200
     24 H5A          0.1170     0.8620    -4.9030 hc         1 9OD       0.037200
     25 H4           2.1290     0.8540    -6.3420 hc         1 9OD       0.058700
     26 H4A          2.1280    -0.9150    -6.3330 hc         1 9OD       0.058700
     27 H3           1.4260    -0.6300    -7.5390 ha         1 9OD       0.110000
     28 H2           0.7460     1.7860    -7.8690 ha         1 9OD       0.052000
@<TRIPOS>BOND
     1     1     2 2
     2     2     3 1
     3     2     4 1
     4     4     5 1
     5     5     6 1
     6     6     7 1
     7     7     8 1
     8     8     9 1
     9     9    10 2
    10    10    11 1
    11    11    12 1
    12    11    13 1
    13     3    14 1
    14     3    15 1
    15     3    16 1
    16     4    17 1
    17     4    18 1
    18     5    19 1
    19     5    20 1
    20     6    21 1
    21     6    22 1
    22     7    23 1
    23     7    24 1
    24     8    25 1
    25     8    26 1
    26     9    27 1
    27    10    28 1
@<TRIPOS>SUBSTRUCTURE
     1 9OD         1 TEMP              0 ****  ****    0 ROOT
