@<TRIPOS>MOLECULE
9OD
   28    27     1     0     0
SMALL
bcc


@<TRIPOS>ATOM
      1 O9          1.3650   -1.4170    0.9500 o         1 9OD     -0.555100
      2 C9          1.6020   -0.5620    0.0870 c         1 9OD      0.569100
      3 C10         1.5310    0.9010    0.3920 c3        1 9OD     -0.203100
      4 C8          1.9950   -0.9360   -1.3130 c3        1 9OD     -0.184400
      5 C7          1.1250   -0.2680   -2.3560 c3        1 9OD     -0.073400
      6 C6          1.5820   -0.6250   -3.7550 c3        1 9OD     -0.079400
      7 C5          0.7310    0.0600   -4.8020 c3        1 9OD     -0.070400
      8 C4          1.2660   -0.2040   -6.1960 c3        1 9OD     -0.053200
      9 C3          0.4490    0.4790   -7.2270 c2        1 9OD     -0.208200
     10 C2          0.9000    1.3950   -8.0860 ce        1 9OD     -0.188200
     11 C1          2.2910    1.9800   -8.1630 c         1 9OD      0.893800
     12 OE1         2.3810    3.1760   -8.5680 o         1 9OD     -0.841800
     13 OE2         3.2960    1.2790   -7.8450 o         1 9OD     -0.841800
     14 H10         1.5440    1.0790    1.4940 hc        1 9OD      0.062367
     15 H10A        2.3890    1.4380   -0.0800 hc        1 9OD      0.062367
     16 H10B        0.5800    1.3150   -0.0270 hc        1 9OD      0.062367
     17 H8          1.9420   -2.0500   -1.4320 hc        1 9OD      0.067700
     18 H8A         3.0660   -0.6310   -1.4650 hc        1 9OD      0.067700
     19 H7          0.0580   -0.5840   -2.2150 hc        1 9OD      0.039700
     20 H7A         1.1640    0.8460   -2.2270 hc        1 9OD      0.039700
     21 H6          2.6540   -0.3210   -3.8900 hc        1 9OD      0.042200
     22 H6A         1.5330   -1.7370   -3.8960 hc        1 9OD      0.042200
     23 H5         -0.3290   -0.2990   -4.7210 hc        1 9OD      0.030200
     24 H5A         0.7230    1.1660   -4.6150 hc        1 9OD      0.030200
     25 H4          2.3360    0.1420   -6.2720 hc        1 9OD      0.063200
     26 H4A         1.2560   -1.3100   -6.3920 hc        1 9OD      0.063200
     27 H3         -0.6090    0.1670   -7.2490 ha        1 9OD      0.069000
     28 H2          0.2090    1.8360   -8.8250 ha        1 9OD      0.095000
@<TRIPOS>BOND
     1    1    2 2   
     2    2    3 1   
     3    2    4 1   
     4    3   14 1   
     5    3   15 1   
     6    3   16 1   
     7    4    5 1   
     8    4   17 1   
     9    4   18 1   
    10    5    6 1   
    11    5   19 1   
    12    5   20 1   
    13    6    7 1   
    14    6   21 1   
    15    6   22 1   
    16    7    8 1   
    17    7   23 1   
    18    7   24 1   
    19    8    9 1   
    20    8   25 1   
    21    8   26 1   
    22    9   10 2   
    23    9   27 1   
    24   10   11 1   
    25   10   28 1   
    26   11   12 1   
    27   11   13 1   
@<TRIPOS>SUBSTRUCTURE
     1 9OD         1 TEMP              0 ****  ****    0 ROOT
