@<TRIPOS>MOLECULE
9OE
   28    29     1     0     0
SMALL
bcc


@<TRIPOS>ATOM
      1 CAA          0.0000     0.0000     0.0000 c3         1 9OE       0.242700
      2 CAE          1.1440     0.0140     4.8500 ce         1 9OE       0.184800
      3 CAF          3.3360     0.0100     3.6780 ca         1 9OE      -0.074000
      4 CAG          4.0770     0.0000     2.5170 ca         1 9OE      -0.125000
      5 CAH          1.2960     0.0070     2.3680 ca         1 9OE      -0.141000
      6 CAL          1.1350    -0.3370     7.3670 cd         1 9OE       0.244500
      7 CAM          1.9360     0.0110     3.6140 ca         1 9OE      -0.142800
      8 CAN          3.4400    -0.0040     1.2830 ca         1 9OE       0.181100
      9 CAO          2.0470     0.0030     1.2110 ca         1 9OE       0.124100
     10 CAP          3.0880    -1.3120     8.0210 c          1 9OE       0.716100
     11 CAQ          1.7030    -0.4010     6.0190 cd         1 9OE      -0.231000
     12 NAI          1.8890    -0.8160     8.3100 nc         1 9OE      -0.442100
     13 OAJ          1.4290     0.0000     0.0000 os         1 9OE      -0.274900
     14 SAK          3.2950    -1.1510     6.2670 ss         1 9OE      -0.196200
     15 H1          -0.3610    -0.8830     0.5130 h1         1 9OE       0.002700
     16 H2          -0.3610    -0.0030    -1.0210 h1         1 9OE       0.002700
     17 H3          -0.3610     0.8860     0.5080 h1         1 9OE       0.002700
     18 H4           0.1550     0.4560     4.8530 ha         1 9OE       0.084000
     19 H6           3.8350     0.0120     4.6400 ha         1 9OE       0.148000
     20 H7           5.1590    -0.0030     2.5660 ha         1 9OE       0.135000
     21 H8           0.2140     0.0130     2.3130 ha         1 9OE       0.127000
     22 H9          -0.2960     0.1570     8.5990 hn         1 9OE       0.221800
     23 H10         -0.8030    -0.3510     7.1310 hn         1 9OE       0.221800
     24 H11          4.5950     0.8250     0.0300 ho         1 9OE       0.420000
     25 NAB         -0.1120     0.1870     7.6160 nz         1 9OE       0.207400
     26 HAB3        -0.1420     1.1390     7.3080 hn         1 9OE       0.221800
     27 OAD          4.1770    -0.0130     0.1410 oh         1 9OE      -0.470100
     28 OAC          3.8900    -1.7860     8.8090 o          1 9OE      -0.391100
@<TRIPOS>BOND
     1     1    13 1   
     2     1    15 1   
     3     1    16 1   
     4     1    17 1   
     5     2     7 1   
     6     2    11 2   
     7     2    18 1   
     8     3     4 ar  
     9     3     7 ar  
    10     3    19 1   
    11     4     8 ar  
    12     4    20 1   
    13     5     7 ar  
    14     5     9 ar  
    15     5    21 1   
    16     6    11 1   
    17     6    12 2   
    18     6    25 1   
    19     8     9 ar  
    20     8    27 1   
    21     9    13 1   
    22    10    12 1   
    23    10    14 1   
    24    10    28 2   
    25    11    14 1   
    26    22    25 1   
    27    23    25 1   
    28    24    27 1   
    29    25    26 1   
@<TRIPOS>SUBSTRUCTURE
     1 9OE         1 TEMP              0 ****  ****    0 ROOT
