@<TRIPOS>MOLECULE
9OF
   36    38     1     0     0
SMALL
bcc


@<TRIPOS>ATOM
      1 C7           0.0000     0.0000     0.0000 ca         1 9OF      -0.313900
      2 C4           1.3770     0.0130     2.3000 ca         1 9OF       0.634900
      3 C5           2.1130     0.0090    -1.2900 ca         1 9OF      -0.207500
      4 C6           1.4180     0.3580    -2.4500 ca         1 9OF      -0.020300
      5 C3           2.0710     0.3510    -3.6650 ca         1 9OF      -0.154000
      6 C2           4.1150    -0.3040    -2.5730 ca         1 9OF      -0.229000
      7 C1           3.4650    -0.3110    -1.3570 ca         1 9OF      -0.007000
      8 C8           3.4170     0.0200    -3.7300 ca         1 9OF       0.170100
      9 C9           1.3900     0.0000     0.0000 ca         1 9OF       0.500800
     10 C10         -0.6640     0.0200     1.2230 ca         1 9OF       0.542200
     11 C11         -0.0270     0.7700    -2.3680 c3         1 9OF       0.032900
     12 C12         -0.7600    -0.0290    -1.2950 c3         1 9OF       0.012300
     13 C13         -2.1490     0.5740    -1.0790 c3         1 9OF      -0.007600
     14 C14         -0.9080    -1.4790    -1.7610 c3         1 9OF      -0.007600
     15 C15          5.4410    -0.3360    -4.9240 c3         1 9OF       0.243700
     16 N16          2.0410     0.0000     1.1610 nb         1 9OF      -0.633000
     17 N17          0.0600     0.0260     2.3410 nb         1 9OF      -0.654000
     18 N18         -2.0490     0.0330     1.2760 nv         1 9OF      -0.663500
     19 O19          4.0560     0.0140    -4.9290 os         1 9OF      -0.307900
     20 H1           1.9310     0.0180     3.2300 h5         1 9OF      -0.002900
     21 H2           1.5310     0.6030    -4.5700 ha         1 9OF       0.121000
     22 H3           5.1650    -0.5630    -2.6280 ha         1 9OF       0.124000
     23 H4           4.0080    -0.5640    -0.4540 ha         1 9OF       0.120000
     24 H5          -0.4950     0.5730    -3.3250 hc         1 9OF       0.031700
     25 H6          -0.0700     1.8200    -2.1050 hc         1 9OF       0.031700
     26 H7          -2.7950    -0.1640    -0.6180 hc         1 9OF       0.011867
     27 H8          -2.0700     1.4400    -0.4330 hc         1 9OF       0.011867
     28 H9          -2.5660     0.8720    -2.0330 hc         1 9OF       0.011867
     29 H10         -1.6150    -1.9940    -1.1210 hc         1 9OF       0.011867
     30 H11         -1.2670    -1.4960    -2.7830 hc         1 9OF       0.011867
     31 H12          0.0540    -1.9760    -1.7080 hc         1 9OF       0.011867
     32 H13          5.5600    -1.3370    -4.5270 h1         1 9OF      -0.001633
     33 H14          5.9890     0.3650    -4.3060 h1         1 9OF      -0.001633
     34 H15          5.8250    -0.3020    -5.9370 h1         1 9OF      -0.001633
     35 H16         -2.5590    -0.8260     1.2210 hn         1 9OF       0.287300
     36 H17         -2.5340     0.8920     1.4430 hn         1 9OF       0.287300
@<TRIPOS>BOND
     1     1     9 ar  
     2     1    10 ar  
     3     1    12 1   
     4     2    16 ar  
     5     2    17 ar  
     6     2    20 1   
     7     3     4 ar  
     8     3     7 ar  
     9     3     9 1   
    10     4     5 ar  
    11     4    11 1   
    12     5     8 ar  
    13     5    21 1   
    14     6     7 ar  
    15     6     8 ar  
    16     6    22 1   
    17     7    23 1   
    18     8    19 1   
    19     9    16 ar  
    20    10    17 ar  
    21    10    18 1   
    22    11    12 1   
    23    11    24 1   
    24    11    25 1   
    25    12    13 1   
    26    12    14 1   
    27    13    26 1   
    28    13    27 1   
    29    13    28 1   
    30    14    29 1   
    31    14    30 1   
    32    14    31 1   
    33    15    19 1   
    34    15    32 1   
    35    15    33 1   
    36    15    34 1   
    37    18    35 1   
    38    18    36 1   
@<TRIPOS>SUBSTRUCTURE
     1 9OF         1 TEMP              0 ****  ****    0 ROOT
