@<TRIPOS>MOLECULE
9OG
   44    46     1     0     0
SMALL
bcc


@<TRIPOS>ATOM
      1 C14          0.0000     0.0000     0.0000 c3         1 9OG       0.146800
      2 C12         -1.9580     0.4800    -1.3410 c3         1 9OG       0.202100
      3 C11         -3.9410     1.3090    -7.5810 c3         1 9OG       0.052200
      4 C10         -3.0620     2.7530    -4.1470 ca         1 9OG       0.385600
      5 C15          1.5300     0.0000     0.0000 c3         1 9OG       0.023900
      6 N28          3.7980    -2.1660     6.0840 n1         1 9OG      -0.382800
      7 C27          3.4320    -1.8170     5.0670 cg         1 9OG       0.232800
      8 C24          2.9540    -1.3610     3.7960 ca         1 9OG       0.021000
      9 C23          2.7260     0.0000     3.5790 ca         1 9OG      -0.068000
     10 C22          2.2660     0.4320     2.3520 ca         1 9OG      -0.099000
     11 C25          2.7210    -2.2740     2.7660 ca         1 9OG      -0.068000
     12 C26          2.2620    -1.8280     1.5440 ca         1 9OG      -0.099000
     13 C21          2.0320    -0.4800     1.3380 ca         1 9OG      -0.069300
     14 N13         -0.4890     0.4680    -1.3030 n7         1 9OG      -0.588200
     15 C08         -2.4220     0.9650    -2.6910 ca         1 9OG      -0.086300
     16 C07         -2.6320     0.0430    -3.7140 ca         1 9OG      -0.079000
     17 C09         -2.6290     2.2950    -2.8910 ca         1 9OG      -0.141300
     18 C05         -3.2750     1.8140    -5.1860 ca         1 9OG      -0.146300
     19 C06         -3.0500     0.4500    -4.9450 ca         1 9OG      -0.092000
     20 N01         -3.2790     4.0540    -4.3690 nb         1 9OG      -0.586000
     21 C02         -3.6850     4.4880    -5.5440 ca         1 9OG       0.509200
     22 N02         -3.8970     5.8470    -5.7270 nv         1 9OG      -0.663500
     23 C03         -3.9090     3.6110    -6.6140 ca         1 9OG      -0.229300
     24 C04         -3.7090     2.2730    -6.4470 ca         1 9OG      -0.039300
     25 H1          -0.3610    -0.9990     0.2150 h1         1 9OG       0.008700
     26 H2          -0.3610     0.6850     0.7580 h1         1 9OG       0.008700
     27 H3          -2.3350     1.1080    -0.5430 h1         1 9OG       0.011700
     28 H4          -2.3310    -0.5290    -1.2130 h1         1 9OG       0.011700
     29 H5          -3.5480     1.7290    -8.4990 hc         1 9OG       0.014700
     30 H6          -5.0040     1.1320    -7.6920 hc         1 9OG       0.014700
     31 H7          -3.4390     0.3730    -7.3690 hc         1 9OG       0.014700
     32 H8           1.8910    -0.6350    -0.8000 hc         1 9OG       0.026700
     33 H9           1.8910     1.0100    -0.1500 hc         1 9OG       0.026700
     34 H10          2.9720     0.7200     4.3500 ha         1 9OG       0.113000
     35 H11          2.0890     1.4870     2.1810 ha         1 9OG       0.113000
     36 H12          2.9640    -3.3210     2.9040 ha         1 9OG       0.113000
     37 H13          2.0810    -2.5340     0.7430 ha         1 9OG       0.113000
     38 H14         -0.1180     1.3780    -1.4920 hn         1 9OG       0.259800
     39 H16         -2.4220    -1.0070    -3.5490 ha         1 9OG       0.109000
     40 H17         -2.4760     2.9990    -2.0820 ha         1 9OG       0.117000
     41 H18         -3.2090    -0.2780    -5.7310 ha         1 9OG       0.115000
     42 H19         -4.7930     6.2450    -5.5260 hn         1 9OG       0.276800
     43 H20         -3.1490     6.4320    -6.0420 hn         1 9OG       0.276800
     44 H21         -4.2420     3.9960    -7.5700 ha         1 9OG       0.120000
@<TRIPOS>BOND
     1     1     5 1   
     2     1    14 1   
     3     1    25 1   
     4     1    26 1   
     5     2    14 1   
     6     2    15 1   
     7     2    27 1   
     8     2    28 1   
     9     3    24 1   
    10     3    29 1   
    11     3    30 1   
    12     3    31 1   
    13     4    17 ar  
    14     4    18 ar  
    15     4    20 ar  
    16     5    13 1   
    17     5    32 1   
    18     5    33 1   
    19     6     7 3   
    20     7     8 1   
    21     8     9 ar  
    22     8    11 ar  
    23     9    10 ar  
    24     9    34 1   
    25    10    13 ar  
    26    10    35 1   
    27    11    12 ar  
    28    11    36 1   
    29    12    13 ar  
    30    12    37 1   
    31    14    38 1   
    32    15    16 ar  
    33    15    17 ar  
    34    16    19 ar  
    35    16    39 1   
    36    17    40 1   
    37    18    19 ar  
    38    18    24 ar  
    39    19    41 1   
    40    20    21 ar  
    41    21    22 1   
    42    21    23 ar  
    43    22    42 1   
    44    22    43 1   
    45    23    24 ar  
    46    23    44 1   
@<TRIPOS>SUBSTRUCTURE
     1 9OG         1 TEMP              0 ****  ****    0 ROOT
