@<TRIPOS>MOLECULE
9OH
   53    53     1     0     0
SMALL
bcc


@<TRIPOS>ATOM
      1 C1          0.0420   -1.4120    0.8610 c         1 9OH      0.907600
      2 C2          1.4580   -0.8780    0.5810 c3        1 9OH     -0.194400
      3 C3          2.2390   -0.7020    1.8600 c3        1 9OH     -0.065400
      4 C4          3.5680   -0.0160    1.6220 c3        1 9OH     -0.078400
      5 C5          4.3470    0.1400    2.9100 c3        1 9OH     -0.079400
      6 C6          5.6820    0.8150    2.6760 c3        1 9OH     -0.079400
      7 C7          6.4560    0.9640    3.9690 c3        1 9OH     -0.077400
      8 C8          7.8030    1.6070    3.7300 c3        1 9OH     -0.109400
      9 C9          8.5780    1.8250    5.0340 c3        1 9OH      0.173300
     10 C10         9.0760    0.5240    5.5700 c2        1 9OH     -0.154200
     11 C11        10.2930   -0.0080    5.6930 c2        1 9OH     -0.175200
     12 C12        11.6290    0.4710    5.3400 cx        1 9OH      0.107300
     13 C13        12.1540    1.8250    5.6960 cx        1 9OH      0.070100
     14 C14        13.6120    2.0250    5.9770 c3        1 9OH     -0.075400
     15 C15        13.9980    3.4850    5.8680 c3        1 9OH     -0.077400
     16 C16        15.4720    3.6820    6.1520 c3        1 9OH     -0.078400
     17 C17        15.8610    5.1420    6.0490 c3        1 9OH     -0.080400
     18 C18        17.3280    5.3440    6.3280 c3        1 9OH     -0.092100
     19 O19        -0.6320   -0.8790    1.7900 o         1 9OH     -0.853300
     20 O20        -0.3880   -2.3510    0.1300 o         1 9OH     -0.853300
     21 O21         9.5660    2.8230    4.8680 oh        1 9OH     -0.613800
     22 O22        11.8060    1.4900    4.3390 os        1 9OH     -0.416600
     23 H21         1.3550    0.1060    0.0570 hc        1 9OH      0.018700
     24 H22         1.9900   -1.5800   -0.1080 hc        1 9OH      0.018700
     25 H31         1.6190   -0.1050    2.5800 hc        1 9OH      0.044200
     26 H32         2.4150   -1.7050    2.3300 hc        1 9OH      0.044200
     27 H41         4.1730   -0.6100    0.8870 hc        1 9OH      0.026700
     28 H42         3.3930    0.9940    1.1650 hc        1 9OH      0.026700
     29 H51         4.5130   -0.8700    3.3710 hc        1 9OH      0.036700
     30 H52         3.7440    0.7410    3.6410 hc        1 9OH      0.036700
     31 H61         6.2840    0.2140    1.9440 hc        1 9OH      0.036700
     32 H62         5.5170    1.8250    2.2170 hc        1 9OH      0.036700
     33 H71         6.5940   -0.0470    4.4370 hc        1 9OH      0.038700
     34 H72         5.8620    1.5850    4.6900 hc        1 9OH      0.038700
     35 H81         8.4130    0.9740    3.0350 hc        1 9OH      0.051700
     36 H82         7.6620    2.6060    3.2390 hc        1 9OH      0.051700
     37 H91         7.8880    2.2740    5.8130 h1        1 9OH      0.075700
     38 H101        8.2250   -0.0950    5.9250 ha        1 9OH      0.126000
     39 H111       10.3520   -1.0160    6.1550 ha        1 9OH      0.120000
     40 H121       12.3630   -0.3590    5.2210 h1        1 9OH      0.082700
     41 H131       11.4710    2.5740    6.1520 h1        1 9OH      0.116700
     42 H141       13.8260    1.6510    7.0130 hc        1 9OH      0.051200
     43 H142       14.2270    1.4180    5.2610 hc        1 9OH      0.051200
     44 H151       13.7570    3.8580    4.8380 hc        1 9OH      0.048200
     45 H152       13.3910    4.0910    6.5910 hc        1 9OH      0.048200
     46 H161       16.0790    3.0800    5.4250 hc        1 9OH      0.038200
     47 H162       15.7130    3.3000    7.1790 hc        1 9OH      0.038200
     48 H171       15.6160    5.5220    5.0220 hc        1 9OH      0.040700
     49 H172       15.2520    5.7420    6.7760 hc        1 9OH      0.040700
     50 H181       17.5860    4.9930    7.3570 hc        1 9OH      0.031033
     51 H182       17.5920    6.4260    6.2480 hc        1 9OH      0.031033
     52 H183       17.9500    4.7730    5.5980 hc        1 9OH      0.031033
     53 H211       10.0760    2.6040    4.0760 ho        1 9OH      0.420000
@<TRIPOS>BOND
     1    1    2 1   
     2    1   19 1   
     3    1   20 1   
     4    2    3 1   
     5    2   23 1   
     6    2   24 1   
     7    3    4 1   
     8    3   25 1   
     9    3   26 1   
    10    4    5 1   
    11    4   27 1   
    12    4   28 1   
    13    5    6 1   
    14    5   29 1   
    15    5   30 1   
    16    6    7 1   
    17    6   31 1   
    18    6   32 1   
    19    7    8 1   
    20    7   33 1   
    21    7   34 1   
    22    8    9 1   
    23    8   35 1   
    24    8   36 1   
    25    9   10 1   
    26    9   21 1   
    27    9   37 1   
    28   10   11 2   
    29   10   38 1   
    30   11   12 1   
    31   11   39 1   
    32   12   13 1   
    33   12   22 1   
    34   12   40 1   
    35   13   14 1   
    36   13   22 1   
    37   13   41 1   
    38   14   15 1   
    39   14   42 1   
    40   14   43 1   
    41   15   16 1   
    42   15   44 1   
    43   15   45 1   
    44   16   17 1   
    45   16   46 1   
    46   16   47 1   
    47   17   18 1   
    48   17   48 1   
    49   17   49 1   
    50   18   50 1   
    51   18   51 1   
    52   18   52 1   
    53   21   53 1   
@<TRIPOS>SUBSTRUCTURE
     1 9OH         1 TEMP              0 ****  ****    0 ROOT
