@<TRIPOS>MOLECULE
molecule
   53    53     1     0     0
SMALL
bcc


@<TRIPOS>ATOM
      1 C1           0.0000     0.0000     0.0000 c          1 9OH       0.890600
      2 C2           1.5070     0.0000     0.0000 c3         1 9OH      -0.183400
      3 C3           2.0170     0.0000     1.4420 c3         1 9OH      -0.063400
      4 C4           3.5470    -0.0000     1.4430 c3         1 9OH      -0.088400
      5 C5           4.0570     0.0010     2.8840 c3         1 9OH      -0.080400
      6 C6           5.5870     0.0000     2.8840 c3         1 9OH      -0.082400
      7 C7           6.0980    -0.0000     4.3260 c3         1 9OH      -0.083400
      8 C8           7.6270     0.0010     4.3270 c3         1 9OH      -0.079400
      9 C9           8.1360    -0.0000     5.7680 c3         1 9OH       0.175300
     10 C10          9.6430     0.0000     5.7690 c2         1 9OH      -0.167200
     11 C11         10.2990     0.9820     6.3360 c2         1 9OH      -0.170200
     12 C12         11.8050     0.9830     6.3360 cx         1 9OH       0.075300
     13 C13         12.5200     2.1220     5.6070 cx         1 9OH       0.047100
     14 C14         13.8490     2.6140     6.1820 c3         1 9OH      -0.067400
     15 C15         14.4100     3.7240     5.2920 c3         1 9OH      -0.079400
     16 C16         15.7400     4.2160     5.8680 c3         1 9OH      -0.082400
     17 C17         16.3010     5.3260     4.9780 c3         1 9OH      -0.084400
     18 C18         17.6300     5.8190     5.5530 c3         1 9OH      -0.092100
     19 O19         -0.6040     0.0000     1.0460 o          1 9OH      -0.858300
     20 O20         -0.6720     0.0000    -1.1620 o          1 9OH      -0.858300
     21 O21          7.6600     1.1670     6.4430 oh         1 9OH      -0.604800
     22 O22         12.4720     0.7920     5.0850 op         1 9OH      -0.383600
     23 H21          1.8680    -0.8850    -0.5110 hc         1 9OH       0.026700
     24 H22          1.8680     0.8850    -0.5110 hc         1 9OH       0.026700
     25 H31          1.6550    -0.8840     1.9530 hc         1 9OH       0.044700
     26 H32          1.6560     0.8850     1.9530 hc         1 9OH       0.044700
     27 H41          3.9080    -0.8850     0.9320 hc         1 9OH       0.029200
     28 H42          3.9080     0.8840     0.9310 hc         1 9OH       0.029200
     29 H51          3.6970     0.8860     3.3940 hc         1 9OH       0.038200
     30 H52          3.6960    -0.8830     3.3960 hc         1 9OH       0.038200
     31 H61          5.9470    -0.8840     2.3730 hc         1 9OH       0.037200
     32 H62          5.9480     0.8850     2.3740 hc         1 9OH       0.037200
     33 H71          5.7360     0.8840     4.8370 hc         1 9OH       0.043200
     34 H72          5.7370    -0.8850     4.8370 hc         1 9OH       0.043200
     35 H81          7.9890    -0.8830     3.8160 hc         1 9OH       0.052700
     36 H82          7.9880     0.8860     3.8170 hc         1 9OH       0.052700
     37 H91          7.7750    -0.8850     6.2790 h1         1 9OH       0.038700
     38 H101        10.1840    -0.8130     5.3000 ha         1 9OH       0.137000
     39 H111         9.7570     1.7950     6.8040 ha         1 9OH       0.154000
     40 H121        12.3340     0.5900     7.1970 h1         1 9OH       0.089700
     41 H131        11.8640     2.8290     5.1130 h1         1 9OH       0.098700
     42 H141        13.6890     3.0000     7.1820 hc         1 9OH       0.052200
     43 H142        14.5530     1.7920     6.2210 hc         1 9OH       0.052200
     44 H151        13.7070     4.5460     5.2530 hc         1 9OH       0.047200
     45 H152        14.5710     3.3380     4.2920 hc         1 9OH       0.047200
     46 H161        16.4440     3.3930     5.9070 hc         1 9OH       0.040200
     47 H162        15.5800     4.6010     6.8680 hc         1 9OH       0.040200
     48 H171        16.4610     4.9410     3.9780 hc         1 9OH       0.041700
     49 H172        15.5970     6.1490     4.9400 hc         1 9OH       0.041700
     50 H181        17.4700     6.2040     6.5530 hc         1 9OH       0.031700
     51 H182        18.3340     4.9960     5.5920 hc         1 9OH       0.031700
     52 H183        18.0270     6.6050     4.9230 hc         1 9OH       0.031700
     53 H211         7.3210     0.9250     7.2890 ho         1 9OH       0.399000
@<TRIPOS>BOND
     1     1     2 1
     2     1    19 1
     3     1    20 1
     4     2     3 1
     5     2    23 1
     6     2    24 1
     7     3     4 1
     8     3    25 1
     9     3    26 1
    10     4     5 1
    11     4    27 1
    12     4    28 1
    13     5     6 1
    14     5    29 1
    15     5    30 1
    16     6     7 1
    17     6    31 1
    18     6    32 1
    19     7     8 1
    20     7    33 1
    21     7    34 1
    22     8     9 1
    23     8    35 1
    24     8    36 1
    25     9    10 1
    26     9    21 1
    27     9    37 1
    28    10    11 2
    29    10    38 1
    30    11    12 1
    31    11    39 1
    32    12    13 1
    33    12    22 1
    34    12    40 1
    35    13    14 1
    36    13    22 1
    37    13    41 1
    38    14    15 1
    39    14    42 1
    40    14    43 1
    41    15    16 1
    42    15    44 1
    43    15    45 1
    44    16    17 1
    45    16    46 1
    46    16    47 1
    47    17    18 1
    48    17    48 1
    49    17    49 1
    50    18    50 1
    51    18    51 1
    52    18    52 1
    53    21    53 1
@<TRIPOS>SUBSTRUCTURE
     1 9OH         1 TEMP              0 ****  ****    0 ROOT
