@<TRIPOS>MOLECULE
9OJ
   47    49     1     0     0
SMALL
bcc


@<TRIPOS>ATOM
      1 N25         -1.2720    -0.0040    -2.2300 n1         1 9OJ      -0.388800
      2 C24         -0.7190     0.0010    -1.2390 cg         1 9OJ       0.238800
      3 C23          0.0000     0.0000     0.0000 ca         1 9OJ       0.015000
      4 C02          1.3970     0.0000     0.0000 ca         1 9OJ      -0.053300
      5 C01          2.1520     0.0010    -1.3050 c3         1 9OJ       0.055200
      6 C22         -0.6920     0.0060     1.2120 ca         1 9OJ      -0.062000
      7 C21          0.0070     0.0120     2.4020 ca         1 9OJ      -0.111000
      8 C04          1.3900     0.0110     2.3940 ca         1 9OJ      -0.060300
      9 C03          2.0830     0.0000     1.1960 ca         1 9OJ      -0.100000
     10 C05          2.1480     0.0180     3.6980 c3         1 9OJ       0.012900
     11 C06          2.4040    -1.4220     4.1450 c3         1 9OJ       0.153800
     12 N07          3.1420    -1.4170     5.4150 n7         1 9OJ      -0.629200
     13 C08          3.4060    -2.7860     5.8780 c3         1 9OJ       0.214100
     14 C09          4.1630    -2.7400     7.1800 ca         1 9OJ      -0.069300
     15 C20          3.4740    -2.7160     8.3540 ca         1 9OJ      -0.167300
     16 C19          4.1740    -2.6730     9.5720 ca         1 9OJ       0.438600
     17 C12          5.5900    -2.6540     9.5530 ca         1 9OJ      -0.197300
     18 C11          6.2670    -2.6790     8.3240 ca         1 9OJ      -0.074000
     19 C10          5.5560    -2.7270     7.1640 ca         1 9OJ      -0.111000
     20 N18          3.5220    -2.6480    10.7400 nb         1 9OJ      -0.676000
     21 C16          4.1730    -2.6080    11.8840 ca         1 9OJ       0.521200
     22 N17          3.4560    -2.5850    13.0720 nv         1 9OJ      -0.530500
     23 C15          5.5740    -2.5870    11.9330 ca         1 9OJ      -0.287300
     24 C13          6.2930    -2.6110    10.7750 ca         1 9OJ       0.004700
     25 C14          7.7990    -2.5900    10.8000 c3         1 9OJ       0.046200
     26 H1           1.8550     0.8600    -1.8940 hc         1 9OJ       0.015367
     27 H2           3.2160     0.0500    -1.1060 hc         1 9OJ       0.015367
     28 H3           1.9290    -0.9070    -1.8520 hc         1 9OJ       0.015367
     29 H4          -1.7740     0.0510     1.2170 ha         1 9OJ       0.112000
     30 H5          -0.5270     0.0160     3.3440 ha         1 9OJ       0.112000
     31 H6           3.1660     0.0000     1.2000 ha         1 9OJ       0.118000
     32 H7           2.8890     0.8080     3.6800 hc         1 9OJ       0.026200
     33 H8           1.4580     0.1880     4.5150 hc         1 9OJ       0.026200
     34 H9           1.4590    -1.9440     4.2410 h1         1 9OJ       0.006200
     35 H10          3.0210    -1.9250     3.4100 h1         1 9OJ       0.006200
     36 H11          2.8570    -0.6300     5.9640 hn         1 9OJ       0.287800
     37 H13          2.5690    -3.1350     6.4690 h1         1 9OJ       0.015200
     38 H14          3.5410    -3.4360     5.0220 h1         1 9OJ       0.015200
     39 H15          2.3920    -2.7660     8.3490 ha         1 9OJ       0.120000
     40 H16          7.3500    -2.6640     8.3020 ha         1 9OJ       0.111000
     41 H17          6.0870    -2.7750     6.2200 ha         1 9OJ       0.109000
     42 H18          3.9390    -2.5440    13.9470 hn         1 9OJ       0.269800
     43 H19          2.4550    -2.5880    13.0520 hn         1 9OJ       0.269800
     44 H20          6.0830    -2.5540    12.8880 ha         1 9OJ       0.117000
     45 H21          8.1390    -1.7650    11.4140 hc         1 9OJ       0.015367
     46 H22          8.1660    -3.5220    11.2120 hc         1 9OJ       0.015367
     47 H23          8.1760    -2.4680     9.7910 hc         1 9OJ       0.015367
@<TRIPOS>BOND
     1     1     2 3   
     2     2     3 1   
     3     3     4 ar  
     4     3     6 ar  
     5     4     5 1   
     6     4     9 ar  
     7     5    26 1   
     8     5    27 1   
     9     5    28 1   
    10     6     7 ar  
    11     6    29 1   
    12     7     8 ar  
    13     7    30 1   
    14     8     9 ar  
    15     8    10 1   
    16     9    31 1   
    17    10    11 1   
    18    10    32 1   
    19    10    33 1   
    20    11    12 1   
    21    11    34 1   
    22    11    35 1   
    23    12    13 1   
    24    12    36 1   
    25    13    14 1   
    26    13    37 1   
    27    13    38 1   
    28    14    15 ar  
    29    14    19 ar  
    30    15    16 ar  
    31    15    39 1   
    32    16    17 ar  
    33    16    20 ar  
    34    17    18 ar  
    35    17    24 ar  
    36    18    19 ar  
    37    18    40 1   
    38    19    41 1   
    39    20    21 ar  
    40    21    22 1   
    41    21    23 ar  
    42    22    42 1   
    43    22    43 1   
    44    23    24 ar  
    45    23    44 1   
    46    24    25 1   
    47    25    45 1   
    48    25    46 1   
    49    25    47 1   
@<TRIPOS>SUBSTRUCTURE
     1 9OJ         1 TEMP              0 ****  ****    0 ROOT
