@<TRIPOS>MOLECULE
molecule
   47    49     1     0     0
SMALL
bcc


@<TRIPOS>ATOM
      1 N25         -1.2720    -0.0040    -2.2300 n1         1 9OJ      -0.369800
      2 C24         -0.7190     0.0010    -1.2390 cg         1 9OJ       0.244800
      3 C23          0.0000     0.0000     0.0000 ca         1 9OJ      -0.030000
      4 C02          1.3970     0.0000     0.0000 ca         1 9OJ      -0.040300
      5 C01          2.1520     0.0010    -1.3050 c3         1 9OJ      -0.054800
      6 C22         -0.6920     0.0060     1.2120 ca         1 9OJ      -0.083000
      7 C21          0.0070     0.0120     2.4020 ca         1 9OJ      -0.139000
      8 C04          1.3900     0.0110     2.3940 ca         1 9OJ      -0.054300
      9 C03          2.0830     0.0000     1.1960 ca         1 9OJ      -0.129000
     10 C05          2.1480     0.0180     3.6980 c3         1 9OJ      -0.054100
     11 C06          2.4040    -1.4220     4.1450 c3         1 9OJ       0.191800
     12 N07          3.1420    -1.4170     5.4150 n7         1 9OJ      -0.924200
     13 C08          3.4060    -2.7860     5.8780 c3         1 9OJ       0.254100
     14 C09          4.1630    -2.7400     7.1800 ca         1 9OJ      -0.062300
     15 C20          3.4740    -2.7160     8.3540 ca         1 9OJ      -0.185300
     16 C19          4.1740    -2.6730     9.5720 ca         1 9OJ       0.477600
     17 C12          5.5900    -2.6540     9.5530 ca         1 9OJ      -0.199300
     18 C11          6.2670    -2.6790     8.3240 ca         1 9OJ      -0.099000
     19 C10          5.5560    -2.7270     7.1640 ca         1 9OJ      -0.135000
     20 N18          3.5220    -2.6480    10.7400 nb         1 9OJ      -0.779000
     21 C16          4.1730    -2.6080    11.8840 ca         1 9OJ       0.717200
     22 N17          3.4560    -2.5850    13.0720 nv         1 9OJ      -1.011500
     23 C15          5.5740    -2.5870    11.9330 ca         1 9OJ      -0.307300
     24 C13          6.2930    -2.6110    10.7750 ca         1 9OJ       0.003700
     25 C14          7.7990    -2.5900    10.8000 c3         1 9OJ      -0.056800
     26 H1           1.8550     0.8600    -1.8940 hc         1 9OJ       0.051367
     27 H2           3.2160     0.0500    -1.1060 hc         1 9OJ       0.051367
     28 H3           1.9290    -0.9070    -1.8520 hc         1 9OJ       0.051367
     29 H4          -1.7740     0.0510     1.2170 ha         1 9OJ       0.142000
     30 H5          -0.5270     0.0160     3.3440 ha         1 9OJ       0.138000
     31 H6           3.1660     0.0000     1.2000 ha         1 9OJ       0.143000
     32 H7           2.8890     0.8080     3.6800 hc         1 9OJ       0.057700
     33 H8           1.4580     0.1880     4.5150 hc         1 9OJ       0.057700
     34 H9           1.4590    -1.9440     4.2410 h1         1 9OJ       0.030700
     35 H10          3.0210    -1.9250     3.4100 h1         1 9OJ       0.030700
     36 H11          2.8570    -0.6300     5.9640 hn         1 9OJ       0.408800
     37 H13          2.5690    -3.1350     6.4690 h1         1 9OJ       0.040700
     38 H14          3.5410    -3.4360     5.0220 h1         1 9OJ       0.040700
     39 H15          2.3920    -2.7660     8.3490 ha         1 9OJ       0.147000
     40 H16          7.3500    -2.6640     8.3020 ha         1 9OJ       0.132000
     41 H17          6.0870    -2.7750     6.2200 ha         1 9OJ       0.135000
     42 H18          3.9390    -2.5440    13.9470 hn         1 9OJ       0.439800
     43 H19          2.4550    -2.5880    13.0520 hn         1 9OJ       0.439800
     44 H20          6.0830    -2.5540    12.8880 ha         1 9OJ       0.134000
     45 H21          8.1390    -1.7650    11.4140 hc         1 9OJ       0.050700
     46 H22          8.1660    -3.5220    11.2120 hc         1 9OJ       0.050700
     47 H23          8.1760    -2.4680     9.7910 hc         1 9OJ       0.050700
@<TRIPOS>BOND
     1    22    21 1
     2    23    21 ar
     3    23    24 ar
     4    21    20 ar
     5    25    24 1
     6    24    17 ar
     7    20    16 ar
     8    17    16 ar
     9    17    18 ar
    10    16    15 ar
    11    18    19 ar
    12    15    14 ar
    13    19    14 ar
    14    14    13 1
    15    13    12 1
    16    12    11 1
    17    11    10 1
    18    10     8 1
    19     7     8 ar
    20     7     6 ar
    21     8     9 ar
    22     6     3 ar
    23     9     4 ar
    24     3     4 ar
    25     3     2 1
    26     4     5 1
    27     2     1 3
    28     5    26 1
    29     5    27 1
    30     5    28 1
    31     6    29 1
    32     7    30 1
    33     9    31 1
    34    10    32 1
    35    10    33 1
    36    11    34 1
    37    11    35 1
    38    12    36 1
    39    13    37 1
    40    13    38 1
    41    15    39 1
    42    18    40 1
    43    19    41 1
    44    22    42 1
    45    22    43 1
    46    23    44 1
    47    25    45 1
    48    25    46 1
    49    25    47 1
@<TRIPOS>SUBSTRUCTURE
     1 9OJ         1 TEMP              0 ****  ****    0 ROOT
