@<TRIPOS>MOLECULE
molecule
   42    43     1     0     0
SMALL
bcc


@<TRIPOS>ATOM
      1 C4           0.0000     0.0000     0.0000 c3         1 9OK       0.084100
      2 C5           1.5490     0.0000     0.0000 c3         1 9OK       0.127100
      3 C6           2.0800     1.2550    -0.6950 c3         1 9OK       0.144400
      4 CAF          0.3670     4.9380     2.9100 ca         1 9OK      -0.136000
      5 CAJ          0.0260     6.1690     2.3720 ca         1 9OK       0.089100
      6 OAC          0.9870     7.1030     2.1430 oh         1 9OK      -0.513100
      7 CAI         -1.3030     6.4460     2.0650 ca         1 9OK       0.081100
      8 OAB         -1.6430     7.6510     1.5370 oh         1 9OK      -0.515100
      9 CAD         -2.2790     5.4910     2.2990 ca         1 9OK      -0.158000
     10 CAE         -1.9310     4.2640     2.8370 ca         1 9OK      -0.119000
     11 CAK         -0.6100     3.9880     3.1360 ca         1 9OK      -0.082300
     12 CAH         -0.2370     2.6500     3.7210 c3         1 9OK      -0.032100
     13 CAG          0.0790     1.6690     2.5910 c3         1 9OK       0.135400
     14 OAA          0.4340     0.4010     3.1460 os         1 9OK      -0.387600
     15 C2           0.8690    -0.5570     2.1780 c3         1 9OK       0.340600
     16 C1           1.3620    -1.8210     2.8850 c3         1 9OK       0.161400
     17 O1           2.4270    -1.4840     3.7770 oh         1 9OK      -0.578800
     18 O5           1.9240     0.0000     1.3870 os         1 9OK      -0.387600
     19 O6           3.5050     1.1820    -0.7880 oh         1 9OK      -0.591800
     20 O4          -0.5160    -0.5770    -1.2020 oh         1 9OK      -0.595800
     21 C3          -0.2940    -0.9050     1.2260 c3         1 9OK       0.072100
     22 O3          -1.5520    -0.5700     1.8170 oh         1 9OK      -0.580800
     23 H1          -0.3860     1.0000     0.1570 h1         1 9OK       0.069700
     24 H2           1.9230    -0.8920    -0.4880 h1         1 9OK       0.079700
     25 H3           1.8000     2.1310    -0.1210 h1         1 9OK       0.033200
     26 H4           1.6560     1.3240    -1.6890 h1         1 9OK       0.033200
     27 H6           1.3370     6.9880     1.2750 ho         1 9OK       0.422000
     28 H7          -2.0960     8.1630     2.1870 ho         1 9OK       0.424000
     29 H8          -3.3140     5.7050     2.0630 ha         1 9OK       0.140000
     30 H9          -2.6940     3.5170     3.0170 ha         1 9OK       0.138000
     31 H10         -1.0630     2.2690     4.3090 hc         1 9OK       0.064200
     32 H11          0.6340     2.7640     4.3550 hc         1 9OK       0.064200
     33 H12         -0.7920     1.5550     1.9570 h1         1 9OK       0.035700
     34 H13          0.9060     2.0490     2.0030 h1         1 9OK       0.035700
     35 H14          0.5470    -2.2620     3.4460 h1         1 9OK       0.032700
     36 H15          1.7180    -2.5310     2.1490 h1         1 9OK       0.032700
     37 H16          2.7090    -2.2580     4.2360 ho         1 9OK       0.399000
     38 H17          3.7980     1.6940    -1.5230 ho         1 9OK       0.401000
     39 H18         -1.2340    -0.0540    -1.5180 ho         1 9OK       0.412000
     40 H19         -0.2590    -1.9510     0.9470 h1         1 9OK       0.067700
     41 H20         -2.1640    -1.2730     1.6740 ho         1 9OK       0.408000
     42 H5           1.4010     4.7180     3.1460 ha         1 9OK       0.150000
@<TRIPOS>BOND
     1    19     3 1
     2    20     1 1
     3     2     3 1
     4     2     1 1
     5     2    18 1
     6     1    21 1
     7    18    15 1
     8    21    15 1
     9    21    22 1
    10    16    15 1
    11    16    17 1
    12    15    14 1
    13    14    13 1
    14    13    12 1
    15    12    11 1
    16    10    11 ar
    17    10     9 ar
    18    11     4 ar
    19     9     7 ar
    20     4     5 ar
    21     7     5 ar
    22     7     8 1
    23     5     6 1
    24     1    23 1
    25     2    24 1
    26     3    25 1
    27     3    26 1
    28     4    42 1
    29     6    27 1
    30     8    28 1
    31     9    29 1
    32    10    30 1
    33    12    31 1
    34    12    32 1
    35    13    33 1
    36    13    34 1
    37    16    35 1
    38    16    36 1
    39    17    37 1
    40    19    38 1
    41    20    39 1
    42    21    40 1
    43    22    41 1
@<TRIPOS>SUBSTRUCTURE
     1 9OK         1 TEMP              0 ****  ****    0 ROOT
