@<TRIPOS>MOLECULE
molecule
   51    54     1     0     0
SMALL
bcc


@<TRIPOS>ATOM
      1 C7           0.0000     0.0000     0.0000 ca         1 9OL      -0.054300
      2 C4           4.0310    -0.2290    -2.5390 ca         1 9OL       0.686900
      3 C5           1.3960     0.0000     0.0000 ca         1 9OL      -0.156500
      4 C6           0.0170     0.0380     2.4020 ca         1 9OL      -0.030800
      5 C3          -0.6850     0.0280     1.1940 ca         1 9OL      -0.128000
      6 C2           1.4130     0.0200     2.3980 ca         1 9OL      -0.136000
      7 C1           2.0980     0.0000     1.2040 ca         1 9OL      -0.078000
      8 C8           1.4190     0.3680    -2.4470 ca         1 9OL      -0.312900
      9 C9           2.1160     0.0240    -1.2930 ca         1 9OL       0.527800
     10 C10          2.1050     0.3670    -3.6590 ca         1 9OL       0.715200
     11 C12         -0.7180     0.0690     3.6820 ce         1 9OL      -0.072400
     12 C13         -0.7530    -0.0570    -1.3030 c3         1 9OL      -0.026100
     13 C14         -1.1510    -2.3610     3.9370 c3         1 9OL      -0.075900
     14 C15          0.8280    -1.3170     5.0400 c3         1 9OL      -0.075900
     15 C16         -1.0030    -3.5550     4.8820 c3         1 9OL       0.158800
     16 C17          0.9200    -2.5410     5.9540 c3         1 9OL       0.158800
     17 C18         -0.6300    -1.0990     4.6300 c3         1 9OL      -0.025500
     18 C19         -0.0310     0.7530    -2.3760 c3         1 9OL      -0.002700
     19 C20         -0.6900     0.4930    -3.7320 c3         1 9OL      -0.074600
     20 C21         -0.1410     2.2420    -2.0430 c3         1 9OL      -0.074600
     21 N22          3.4150    -0.2470    -1.3730 nb         1 9OL      -0.742000
     22 N23          3.4010     0.0620    -3.6590 nb         1 9OL      -0.767000
     23 N24          0.4100    -3.7220     5.2440 n7         1 9OL      -0.816200
     24 N25          1.4510     0.6790    -4.8410 nv         1 9OL      -1.078500
     25 H1           5.0860    -0.4720    -2.5780 h5         1 9OL       0.058100
     26 H2          -1.7690     0.0430     1.1970 ha         1 9OL       0.137000
     27 H3           1.9580     0.0280     3.3350 ha         1 9OL       0.142000
     28 H4           3.1810    -0.0140     1.2000 ha         1 9OL       0.154000
     29 H5          -1.9950     1.1490     4.9370 ha         1 9OL       0.117500
     30 H6          -1.5180     1.9660     3.3170 ha         1 9OL       0.117500
     31 H7          -1.7460     0.3500    -1.1580 hc         1 9OL       0.058200
     32 H8          -0.8270    -1.0880    -1.6260 hc         1 9OL       0.058200
     33 H10         -0.5760    -2.5410     3.0370 hc         1 9OL       0.054700
     34 H11          1.4310    -1.4820     4.1550 hc         1 9OL       0.054700
     35 H12          1.1880    -0.4440     5.5710 hc         1 9OL       0.054700
     36 H13         -1.3560    -4.4510     4.3870 h1         1 9OL       0.030200
     37 H14         -1.5860    -3.3780     5.7780 h1         1 9OL       0.030200
     38 H15          0.3250    -2.3710     6.8430 h1         1 9OL       0.030200
     39 H16          1.9540    -2.7060     6.2300 h1         1 9OL       0.030200
     40 H17         -1.2270    -0.9000     5.5120 hc         1 9OL       0.052700
     41 H18         -0.3360    -0.4510    -4.1300 hc         1 9OL       0.037033
     42 H19         -1.7650     0.4520    -3.6090 hc         1 9OL       0.037033
     43 H20         -0.4350     1.2920    -4.4170 hc         1 9OL       0.037033
     44 H21          0.1870     2.8280    -2.8930 hc         1 9OL       0.037033
     45 H22         -1.1710     2.4860    -1.8120 hc         1 9OL       0.037033
     46 H23          0.4840     2.4680    -1.1870 hc         1 9OL       0.037033
     47 H24          0.5130    -4.5300     5.8250 hn         1 9OL       0.351800
     48 H26          1.3560     1.6350    -5.1230 hn         1 9OL       0.440300
     49 H27          1.1410    -0.0540    -5.4490 hn         1 9OL       0.440300
     50 H9          -2.1960    -2.2280     3.6840 hc         1 9OL       0.054700
     51 C11         -1.4550     1.1260     3.9980 c2         1 9OL      -0.209000
@<TRIPOS>BOND
     1    23    15 1
     2    23    16 1
     3    15    13 1
     4    16    14 1
     5    13    17 1
     6    14    17 1
     7    17    11 1
     8    11     4 1
     9    11    51 2
    10     5     4 ar
    11     5     1 ar
    12     4     6 ar
    13    12     1 1
    14    12    18 1
    15     1     3 ar
    16     6     7 ar
    17    20    18 1
    18     3     7 ar
    19     3     9 1
    20    18     8 1
    21    18    19 1
    22     9    21 ar
    23     9     8 ar
    24    21     2 ar
    25     8    10 ar
    26     2    22 ar
    27    10    22 ar
    28    10    24 1
    29     2    25 1
    30     5    26 1
    31     6    27 1
    32     7    28 1
    33    51    29 1
    34    51    30 1
    35    12    31 1
    36    12    32 1
    37    13    50 1
    38    13    33 1
    39    14    34 1
    40    14    35 1
    41    15    36 1
    42    15    37 1
    43    16    38 1
    44    16    39 1
    45    17    40 1
    46    19    41 1
    47    19    42 1
    48    19    43 1
    49    20    44 1
    50    20    45 1
    51    20    46 1
    52    23    47 1
    53    24    48 1
    54    24    49 1
@<TRIPOS>SUBSTRUCTURE
     1 9OL         1 TEMP              0 ****  ****    0 ROOT
