@<TRIPOS>MOLECULE
molecule
   45    47     1     0     0
SMALL
bcc


@<TRIPOS>ATOM
      1 N02          0.0000     0.0000     0.0000 nv         1 9OM      -1.085500
      2 C02          1.3860     0.0000     0.0000 ca         1 9OM       0.688200
      3 N01          2.0290     0.0000     1.1500 nb         1 9OM      -0.703000
      4 C10          3.3670    -0.0000     1.1960 ca         1 9OM       0.429600
      5 C03          2.0720    -0.0050    -1.2230 ca         1 9OM      -0.255300
      6 C04          3.4330    -0.0060    -1.2390 ca         1 9OM      -0.080000
      7 C05          4.1150     0.0000    -0.0040 ca         1 9OM      -0.161300
      8 C06          5.5180    -0.0010     0.0530 ca         1 9OM      -0.109000
      9 C07          6.1440    -0.0020     1.2630 ca         1 9OM      -0.127000
     10 C08          5.4090    -0.0030     2.4460 ca         1 9OM      -0.081300
     11 C09          4.0470    -0.0010     2.4270 ca         1 9OM      -0.141300
     12 C11          6.1310    -0.0040     3.7680 c3         1 9OM       0.203100
     13 N12          6.3670     1.3790     4.1990 n7         1 9OM      -0.814200
     14 C13          7.0720     1.4170     5.4880 c3         1 9OM       0.154800
     15 C14          7.2990     2.8720     5.9020 c3         1 9OM      -0.079400
     16 C15          8.0330     2.9110     7.2450 c3         1 9OM      -0.033100
     17 C23          8.2560     4.3440     7.6540 ca         1 9OM      -0.208600
     18 C22          9.4470     4.9790     7.3560 ca         1 9OM       0.424200
     19 C24          7.2680     5.0440     8.3290 ca         1 9OM      -0.043300
     20 C27          5.9540     4.3890     8.6680 c3         1 9OM      -0.051800
     21 C25          7.5180     6.3600     8.6850 ca         1 9OM      -0.252300
     22 C26          8.7350     6.9270     8.3580 ca         1 9OM       0.417200
     23 N21          9.6480     6.2340     7.7050 nb         1 9OM      -0.693000
     24 H1          -0.5000    -0.8670     0.0010 hn         1 9OM       0.436800
     25 H2          -0.5000     0.8660     0.0280 hn         1 9OM       0.436800
     26 H3           1.5190     0.0460    -2.1540 ha         1 9OM       0.142000
     27 H4           3.9780    -0.0090    -2.1750 ha         1 9OM       0.138000
     28 H5           6.1000    -0.0010    -0.8610 ha         1 9OM       0.132000
     29 H6           7.2260    -0.0030     1.3050 ha         1 9OM       0.128000
     30 H7           3.4890    -0.0010     3.3560 ha         1 9OM       0.155000
     31 H8           5.5280    -0.5150     4.5090 h1         1 9OM       0.038700
     32 H9           7.0800    -0.5160     3.6600 h1         1 9OM       0.038700
     33 H10          6.9110     1.8560     3.5080 hn         1 9OM       0.356800
     34 H12          6.4750     0.9160     6.2410 h1         1 9OM       0.031200
     35 H13          8.0270     0.9150     5.3920 h1         1 9OM       0.031200
     36 H14          6.3440     3.3740     5.9980 hc         1 9OM       0.053700
     37 H15          7.8960     3.3730     5.1500 hc         1 9OM       0.053700
     38 H16          7.4360     2.4090     7.9980 hc         1 9OM       0.050200
     39 H17          8.9890     2.4100     7.1490 hc         1 9OM       0.050200
     40 H18         10.2210     4.4420     6.8210 h4         1 9OM       0.021100
     41 H19          5.3550     4.2940     7.7700 hc         1 9OM       0.049367
     42 H20          5.4240     4.9970     9.3920 hc         1 9OM       0.049367
     43 H21          6.1370     3.4070     9.0850 hc         1 9OM       0.049367
     44 H22          6.7700     6.9350     9.2170 ha         1 9OM       0.138000
     45 H23          8.9370     7.9560     8.6300 h4         1 9OM       0.022100
@<TRIPOS>BOND
     1    23    22 ar
     2    23    18 ar
     3    22    21 ar
     4    18    17 ar
     5    21    19 ar
     6    17    19 ar
     7    17    16 1
     8    19    20 1
     9    15    16 1
    10    15    14 1
    11    14    13 1
    12    13    12 1
    13    12    10 1
    14    11    10 ar
    15    11     4 ar
    16    10     9 ar
    17     3     4 ar
    18     3     2 ar
    19     4     7 ar
    20     9     8 ar
    21     1     2 1
    22     2     5 ar
    23     7     8 ar
    24     7     6 ar
    25     5     6 ar
    26     1    24 1
    27     1    25 1
    28     5    26 1
    29     6    27 1
    30     8    28 1
    31     9    29 1
    32    11    30 1
    33    12    31 1
    34    12    32 1
    35    13    33 1
    36    14    34 1
    37    14    35 1
    38    15    36 1
    39    15    37 1
    40    16    38 1
    41    16    39 1
    42    18    40 1
    43    20    41 1
    44    20    42 1
    45    20    43 1
    46    21    44 1
    47    22    45 1
@<TRIPOS>SUBSTRUCTURE
     1 9OM         1 TEMP              0 ****  ****    0 ROOT
