@<TRIPOS>MOLECULE
molecule
   18    17     1     0     0
SMALL
bcc


@<TRIPOS>ATOM
      1 O12          0.0000     0.0000     0.0000 o          1 9ON      -0.874300
      2 C7           1.2080     0.0000     0.0000 c          1 9ON       0.896600
      3 O10          1.8800     0.0050    -1.1620 o          1 9ON      -0.874300
      4 C4           1.9620     0.0000     1.3060 c3         1 9ON      -0.176700
      5 C5           2.8420     1.2490     1.3870 c3         1 9ON      -0.067100
      6 C3           0.9670     0.0010     2.4680 c3         1 9ON      -0.042400
      7 C2           1.7270    -0.1250     3.7900 c3         1 9ON      -0.185400
      8 C1           0.7480    -0.1240     4.9350 c          1 9ON       0.890600
      9 O8           1.1920    -0.2250     6.1980 o          1 9ON      -0.879300
     10 O9          -0.4370    -0.0330     4.7170 o          1 9ON      -0.879300
     11 H2           2.5840    -0.8850     1.3640 hc         1 9ON       0.026700
     12 H3           2.2600     2.0770     1.7750 hc         1 9ON       0.012033
     13 H4           3.2080     1.4980     0.3980 hc         1 9ON       0.012033
     14 H5           3.6810     1.0580     2.0450 hc         1 9ON       0.012033
     15 H6           0.2870    -0.8360     2.3620 hc         1 9ON       0.048700
     16 H7           0.4040     0.9270     2.4620 hc         1 9ON       0.048700
     17 H8           2.4080     0.7120     3.8960 hc         1 9ON       0.016700
     18 H9           2.2900    -1.0510     3.7960 hc         1 9ON       0.016700
@<TRIPOS>BOND
     1     1     2 1
     2     4     2 1
     3     4     5 1
     4     4     6 1
     5     2     3 1
     6     7     6 1
     7     7     8 1
     8    10     8 1
     9     8     9 1
    10     4    11 1
    11     5    12 1
    12     5    13 1
    13     5    14 1
    14     6    15 1
    15     6    16 1
    16     7    17 1
    17     7    18 1
@<TRIPOS>SUBSTRUCTURE
     1 9ON         1 TEMP              0 ****  ****    0 ROOT
