@<TRIPOS>MOLECULE
9OS
   46    48     1     0     0
SMALL
bcc


@<TRIPOS>ATOM
      1 C10          0.0000     0.0000     0.0000 ca         1 9OS       0.382600
      2 C11         -2.8540     0.0070    -2.4710 c3         1 9OS       0.200100
      3 N02          3.4070    -0.0000     1.0770 nv         1 9OS      -0.662500
      4 C02          2.0210     0.0000     1.1270 ca         1 9OS       0.503200
      5 N01          1.3380     0.0000     0.0000 nb         1 9OS      -0.580000
      6 C03          1.3800    -0.0010     2.3740 ca         1 9OS      -0.224300
      7 C04          0.0190    -0.0010     2.4370 ca         1 9OS      -0.053000
      8 C05         -0.7060    -0.0000     1.2280 ca         1 9OS      -0.151300
      9 C06         -2.1090     0.0010     1.2210 ca         1 9OS      -0.084000
     10 C07         -2.7770     0.0010     0.0340 ca         1 9OS      -0.078000
     11 C08         -2.0850     0.0010    -1.1750 ca         1 9OS      -0.084300
     12 C09         -0.7230     0.0050    -1.2040 ca         1 9OS      -0.142300
     13 N12         -3.1000    -1.3750    -2.9010 n7         1 9OS      -0.582200
     14 C13         -3.8500    -1.4080    -4.1630 c3         1 9OS       0.142800
     15 C14         -4.0860    -2.8620    -4.5780 c3         1 9OS      -0.029400
     16 C15         -4.8670    -2.8970    -5.8930 c3         1 9OS       0.047900
     17 C23         -5.1010    -4.3280    -6.3010 ca         1 9OS      -0.248600
     18 C22         -4.2410    -4.9530    -7.1810 ca         1 9OS       0.441200
     19 C24         -6.1840    -5.0400    -5.7930 ca         1 9OS       0.184100
     20 O27         -7.0500    -4.4620    -4.9210 os         1 9OS      -0.298900
     21 C28         -8.1320    -5.2680    -4.4510 c3         1 9OS       0.243700
     22 C25         -6.3570    -6.3600    -6.2000 ca         1 9OS      -0.331300
     23 C26         -5.4560    -6.9120    -7.0880 ca         1 9OS       0.443200
     24 N21         -4.4380    -6.2070    -7.5430 nb         1 9OS      -0.617000
     25 H1          -2.2790     0.5250    -3.2300 h1         1 9OS       0.009700
     26 H2          -3.8010     0.5150    -2.3270 h1         1 9OS       0.009700
     27 H3           3.9080     0.8660     1.0660 hn         1 9OS       0.276800
     28 H4           3.9060    -0.8660     1.0230 hn         1 9OS       0.276800
     29 H5           1.9650    -0.0670     3.2840 ha         1 9OS       0.116000
     30 H6          -0.4930    -0.0020     3.3920 ha         1 9OS       0.109000
     31 H7          -2.6590     0.0000     2.1550 ha         1 9OS       0.107000
     32 H8          -3.8600     0.0030     0.0300 ha         1 9OS       0.109000
     33 H9          -0.2020     0.1070    -2.1490 ha         1 9OS       0.118000
     34 H10         -2.2260    -1.8480    -3.0200 hn         1 9OS       0.257800
     35 H12         -3.2830    -0.9000    -4.9340 h1         1 9OS       0.005700
     36 H13         -4.8040    -0.9120    -4.0300 h1         1 9OS       0.005700
     37 H14         -3.1330    -3.3590    -4.7110 hc         1 9OS       0.024200
     38 H15         -4.6540    -3.3700    -3.8080 hc         1 9OS       0.024200
     39 H16         -4.2990    -2.3890    -6.6640 hc         1 9OS       0.021200
     40 H17         -5.8200    -2.3990    -5.7600 hc         1 9OS       0.021200
     41 H18         -3.3920    -4.4090    -7.5780 h4         1 9OS      -0.017900
     42 H19         -8.7350    -4.6930    -3.7590 h1         1 9OS       0.000033
     43 H20         -7.7380    -6.1420    -3.9460 h1         1 9OS       0.000033
     44 H21         -8.7420    -5.5790    -5.2900 h1         1 9OS       0.000033
     45 H22         -7.1890    -6.9450    -5.8280 ha         1 9OS       0.128000
     46 H23         -5.5830    -7.9390    -7.4100 h4         1 9OS      -0.022900
@<TRIPOS>BOND
     1     1     5 ar  
     2     1     8 ar  
     3     1    12 ar  
     4     2    11 1   
     5     2    13 1   
     6     2    25 1   
     7     2    26 1   
     8     3     4 1   
     9     3    27 1   
    10     3    28 1   
    11     4     5 ar  
    12     4     6 ar  
    13     6     7 ar  
    14     6    29 1   
    15     7     8 ar  
    16     7    30 1   
    17     8     9 ar  
    18     9    10 ar  
    19     9    31 1   
    20    10    11 ar  
    21    10    32 1   
    22    11    12 ar  
    23    12    33 1   
    24    13    14 1   
    25    13    34 1   
    26    14    15 1   
    27    14    35 1   
    28    14    36 1   
    29    15    16 1   
    30    15    37 1   
    31    15    38 1   
    32    16    17 1   
    33    16    39 1   
    34    16    40 1   
    35    17    18 ar  
    36    17    19 ar  
    37    18    24 ar  
    38    18    41 1   
    39    19    20 1   
    40    19    22 ar  
    41    20    21 1   
    42    21    42 1   
    43    21    43 1   
    44    21    44 1   
    45    22    23 ar  
    46    22    45 1   
    47    23    24 ar  
    48    23    46 1   
@<TRIPOS>SUBSTRUCTURE
     1 9OS         1 TEMP              0 ****  ****    0 ROOT
