@<TRIPOS>MOLECULE
molecule
   46    48     1     0     0
SMALL
bcc


@<TRIPOS>ATOM
      1 C10          0.0000     0.0000     0.0000 ca         1 9OS       0.431600
      2 C11         -2.8540     0.0070    -2.4710 c3         1 9OS       0.202100
      3 N02          3.4070    -0.0000     1.0770 nv         1 9OS      -1.085500
      4 C02          2.0210     0.0000     1.1270 ca         1 9OS       0.688200
      5 N01          1.3380     0.0000     0.0000 nb         1 9OS      -0.706000
      6 C03          1.3800    -0.0010     2.3740 ca         1 9OS      -0.256300
      7 C04          0.0190    -0.0010     2.4370 ca         1 9OS      -0.080000
      8 C05         -0.7060    -0.0000     1.2280 ca         1 9OS      -0.161300
      9 C06         -2.1090     0.0010     1.2210 ca         1 9OS      -0.111000
     10 C07         -2.7770     0.0010     0.0340 ca         1 9OS      -0.109000
     11 C08         -2.0850     0.0010    -1.1750 ca         1 9OS      -0.072300
     12 C09         -0.7230     0.0050    -1.2040 ca         1 9OS      -0.166300
     13 N12         -3.1000    -1.3750    -2.9010 n7         1 9OS      -0.814200
     14 C13         -3.8500    -1.4080    -4.1630 c3         1 9OS       0.155800
     15 C14         -4.0860    -2.8620    -4.5780 c3         1 9OS      -0.078400
     16 C15         -4.8670    -2.8970    -5.8930 c3         1 9OS      -0.023100
     17 C23         -5.1010    -4.3280    -6.3010 ca         1 9OS      -0.235600
     18 C22         -4.2410    -4.9530    -7.1810 ca         1 9OS       0.451200
     19 C24         -6.1840    -5.0400    -5.7930 ca         1 9OS       0.173100
     20 O27         -7.0500    -4.4620    -4.9210 os         1 9OS      -0.320900
     21 C28         -8.1320    -5.2680    -4.4510 c3         1 9OS       0.126700
     22 C25         -6.3570    -6.3600    -6.2000 ca         1 9OS      -0.345300
     23 C26         -5.4560    -6.9120    -7.0880 ca         1 9OS       0.450200
     24 N21         -4.4380    -6.2070    -7.5430 nb         1 9OS      -0.717000
     25 H1          -2.2790     0.5250    -3.2300 h1         1 9OS       0.038700
     26 H2          -3.8010     0.5150    -2.3270 h1         1 9OS       0.038700
     27 H3           3.9080     0.8660     1.0660 hn         1 9OS       0.435800
     28 H4           3.9060    -0.8660     1.0230 hn         1 9OS       0.435800
     29 H5           1.9650    -0.0670     3.2840 ha         1 9OS       0.142000
     30 H6          -0.4930    -0.0020     3.3920 ha         1 9OS       0.138000
     31 H7          -2.6590     0.0000     2.1550 ha         1 9OS       0.133000
     32 H8          -3.8600     0.0030     0.0300 ha         1 9OS       0.136000
     33 H9          -0.2020     0.1070    -2.1490 ha         1 9OS       0.147000
     34 H10         -2.2260    -1.8480    -3.0200 hn         1 9OS       0.358800
     35 H12         -3.2830    -0.9000    -4.9340 h1         1 9OS       0.031200
     36 H13         -4.8040    -0.9120    -4.0300 h1         1 9OS       0.031200
     37 H14         -3.1330    -3.3590    -4.7110 hc         1 9OS       0.054200
     38 H15         -4.6540    -3.3700    -3.8080 hc         1 9OS       0.054200
     39 H16         -4.2990    -2.3890    -6.6640 hc         1 9OS       0.052200
     40 H17         -5.8200    -2.3990    -5.7600 hc         1 9OS       0.052200
     41 H18         -3.3920    -4.4090    -7.5780 h4         1 9OS       0.027100
     42 H19         -8.7350    -4.6930    -3.7590 h1         1 9OS       0.044700
     43 H20         -7.7380    -6.1420    -3.9460 h1         1 9OS       0.044700
     44 H21         -8.7420    -5.5790    -5.2900 h1         1 9OS       0.044700
     45 H22         -7.1890    -6.9450    -5.8280 ha         1 9OS       0.141000
     46 H23         -5.5830    -7.9390    -7.4100 h4         1 9OS       0.022100
@<TRIPOS>BOND
     1    21    20 1
     2    20    19 1
     3    22    19 ar
     4    22    23 ar
     5    19    17 ar
     6    23    24 ar
     7    17    16 1
     8    17    18 ar
     9    16    15 1
    10    24    18 ar
    11    15    14 1
    12    14    13 1
    13    13     2 1
    14     2    11 1
    15    11    12 ar
    16    11    10 ar
    17    12     1 ar
    18    10     9 ar
    19     5     1 ar
    20     5     4 ar
    21     1     8 ar
    22     3     4 1
    23     4     6 ar
    24     9     8 ar
    25     8     7 ar
    26     6     7 ar
    27     2    25 1
    28     2    26 1
    29     3    27 1
    30     3    28 1
    31     6    29 1
    32     7    30 1
    33     9    31 1
    34    10    32 1
    35    12    33 1
    36    13    34 1
    37    14    35 1
    38    14    36 1
    39    15    37 1
    40    15    38 1
    41    16    39 1
    42    16    40 1
    43    18    41 1
    44    21    42 1
    45    21    43 1
    46    21    44 1
    47    22    45 1
    48    23    46 1
@<TRIPOS>SUBSTRUCTURE
     1 9OS         1 TEMP              0 ****  ****    0 ROOT
