@<TRIPOS>MOLECULE
molecule
   45    47     1     0     0
SMALL
bcc


@<TRIPOS>ATOM
      1 C02          0.0000     0.0000     0.0000 ca         1 9P1       0.687200
      2 C04          2.0800     0.0000     1.1810 ca         1 9P1      -0.079000
      3 C05          1.3370     0.0010     2.3790 ca         1 9P1      -0.161300
      4 C13         -2.0040    -1.4510     7.6360 c3         1 9P1       0.212100
      5 C03          1.4020     0.0000     0.0000 ca         1 9P1      -0.256300
      6 C06          1.9720     0.0020     3.6310 ca         1 9P1      -0.112000
      7 C21         -2.2450    -2.8870     8.0260 ca         1 9P1      -0.146300
      8 C22         -1.3400    -3.5410     8.8410 ca         1 9P1      -0.069000
      9 C24         -2.6860    -5.5230     8.7430 ca         1 9P1       0.208600
     10 C25         -3.5970    -4.8600     7.9280 ca         1 9P1      -0.208000
     11 C26         -3.3730    -3.5450     7.5730 ca         1 9P1      -0.069000
     12 C28         -4.1050    -7.5520     8.6260 c3         1 9P1       0.232100
     13 C29         -1.9490    -7.5490     9.9640 c3         1 9P1       0.232100
     14 N02         -0.6780    -0.0000    -1.2100 nv         1 9P1      -1.086500
     15 N01         -0.6900    -0.0050     1.1230 nb         1 9P1      -0.706000
     16 C10         -0.0780    -0.0050     2.3130 ca         1 9P1       0.431600
     17 C07          1.2210     0.0020     4.7670 ca         1 9P1      -0.108000
     18 C08         -0.1700    -0.0120     4.7040 ca         1 9P1      -0.070300
     19 C09         -0.8180    -0.0120     3.5070 ca         1 9P1      -0.166300
     20 N12         -1.2240    -1.4050     6.3920 n7         1 9P1      -0.811200
     21 C23         -1.5570    -4.8570     9.2010 ca         1 9P1      -0.208000
     22 N27         -2.9090    -6.8530     9.1050 nh         1 9P1      -0.741000
     23 H1           3.1630     0.0000     1.2000 ha         1 9P1       0.138000
     24 H2          -1.9140     0.4890     5.8180 h1         1 9P1       0.037700
     25 H3          -0.4150     0.4940     6.7580 h1         1 9P1       0.037700
     26 H4          -2.9550    -0.9550     7.4840 h1         1 9P1       0.033200
     27 H5          -1.4570    -0.9500     8.4250 h1         1 9P1       0.033200
     28 H6           1.9430    -0.0640    -0.9360 ha         1 9P1       0.141000
     29 H7           3.0540     0.0130     3.6930 ha         1 9P1       0.133000
     30 H8          -0.4590    -3.0220     9.1980 ha         1 9P1       0.128500
     31 H9          -4.4800    -5.3750     7.5710 ha         1 9P1       0.130500
     32 H10         -4.0820    -3.0280     6.9380 ha         1 9P1       0.128500
     33 H11         -4.1070    -8.5660     9.0070 h1         1 9P1       0.034200
     34 H12         -4.9900    -7.0340     8.9730 h1         1 9P1       0.034200
     35 H13         -4.1000    -7.5740     7.5430 h1         1 9P1       0.034200
     36 H14         -1.8720    -7.0320    10.9130 h1         1 9P1       0.034200
     37 H15         -2.2850    -8.5650    10.1320 h1         1 9P1       0.034200
     38 H16         -0.9790    -7.5660     9.4820 h1         1 9P1       0.034200
     39 H17         -0.9170     0.8660    -1.6500 hn         1 9P1       0.435800
     40 H18         -0.9520    -0.8670    -1.6300 hn         1 9P1       0.435800
     41 H19          1.7120     0.0140     5.7330 ha         1 9P1       0.136000
     42 H20         -1.8980     0.0710     3.4750 ha         1 9P1       0.146000
     43 H21         -1.7230    -1.8830     5.6680 hn         1 9P1       0.361800
     44 H23         -0.8460    -5.3700     9.8380 ha         1 9P1       0.130500
     45 C11         -0.9710    -0.0180     5.9810 c3         1 9P1       0.200100
@<TRIPOS>BOND
     1    12    22 1
     2    13    22 1
     3    22     9 1
     4     9    10 ar
     5     9    21 ar
     6    10    11 ar
     7    21     8 ar
     8    11     7 ar
     9     8     7 ar
    10     7     4 1
    11    20     4 1
    12    20    45 1
    13    45    18 1
    14    18    19 ar
    15    18    17 ar
    16    19    16 ar
    17    17     6 ar
    18    16    15 ar
    19    16     3 ar
    20    15     1 ar
    21     6     3 ar
    22     3     2 ar
    23     1    14 1
    24     1     5 ar
    25     2     5 ar
    26     2    23 1
    27    45    24 1
    28    45    25 1
    29     4    26 1
    30     4    27 1
    31     5    28 1
    32     6    29 1
    33     8    30 1
    34    10    31 1
    35    11    32 1
    36    12    33 1
    37    12    34 1
    38    12    35 1
    39    13    36 1
    40    13    37 1
    41    13    38 1
    42    14    39 1
    43    14    40 1
    44    17    41 1
    45    19    42 1
    46    20    43 1
    47    21    44 1
@<TRIPOS>SUBSTRUCTURE
     1 9P1         1 TEMP              0 ****  ****    0 ROOT
