@<TRIPOS>MOLECULE
9P1
   45    47     1     0     0
SMALL
bcc


@<TRIPOS>ATOM
      1 C02          0.0000     0.0000     0.0000 ca         1 9P1       0.502200
      2 C04          2.0800     0.0000     1.1810 ca         1 9P1      -0.053000
      3 C05          1.3370     0.0010     2.3790 ca         1 9P1      -0.152300
      4 C13         -2.0040    -1.4510     7.6360 c3         1 9P1       0.213100
      5 C03          1.4020     0.0000     0.0000 ca         1 9P1      -0.224300
      6 C06          1.9720     0.0020     3.6310 ca         1 9P1      -0.084000
      7 C21         -2.2450    -2.8870     8.0260 ca         1 9P1      -0.160300
      8 C22         -1.3400    -3.5410     8.8410 ca         1 9P1      -0.035500
      9 C24         -2.6860    -5.5230     8.7430 ca         1 9P1       0.082600
     10 C25         -3.5970    -4.8600     7.9280 ca         1 9P1      -0.193000
     11 C26         -3.3730    -3.5450     7.5730 ca         1 9P1      -0.035500
     12 C28         -4.1050    -7.5520     8.6260 c3         1 9P1       0.213100
     13 C29         -1.9490    -7.5490     9.9640 c3         1 9P1       0.213100
     14 N02         -0.6780    -0.0000    -1.2100 nv         1 9P1      -0.662500
     15 N01         -0.6900    -0.0050     1.1230 nb         1 9P1      -0.580000
     16 C10         -0.0780    -0.0050     2.3130 ca         1 9P1       0.381600
     17 C07          1.2210     0.0020     4.7670 ca         1 9P1      -0.077000
     18 C08         -0.1700    -0.0120     4.7040 ca         1 9P1      -0.082300
     19 C09         -0.8180    -0.0120     3.5070 ca         1 9P1      -0.142300
     20 N12         -1.2240    -1.4050     6.3920 n7         1 9P1      -0.581200
     21 C23         -1.5570    -4.8570     9.2010 ca         1 9P1      -0.193000
     22 N27         -2.9090    -6.8530     9.1050 nh         1 9P1      -0.398000
     23 H1           3.1630     0.0000     1.2000 ha         1 9P1       0.109000
     24 H2          -1.9140     0.4890     5.8180 h1         1 9P1       0.009200
     25 H3          -0.4150     0.4940     6.7580 h1         1 9P1       0.009200
     26 H4          -2.9550    -0.9550     7.4840 h1         1 9P1       0.005200
     27 H5          -1.4570    -0.9500     8.4250 h1         1 9P1       0.005200
     28 H6           1.9430    -0.0640    -0.9360 ha         1 9P1       0.116000
     29 H7           3.0540     0.0130     3.6930 ha         1 9P1       0.107000
     30 H8          -0.4590    -3.0220     9.1980 ha         1 9P1       0.100000
     31 H9          -4.4800    -5.3750     7.5710 ha         1 9P1       0.114000
     32 H10         -4.0820    -3.0280     6.9380 ha         1 9P1       0.100000
     33 H11         -4.1070    -8.5660     9.0070 h1         1 9P1       0.003700
     34 H12         -4.9900    -7.0340     8.9730 h1         1 9P1       0.003700
     35 H13         -4.1000    -7.5740     7.5430 h1         1 9P1       0.003700
     36 H14         -1.8720    -7.0320    10.9130 h1         1 9P1       0.003700
     37 H15         -2.2850    -8.5650    10.1320 h1         1 9P1       0.003700
     38 H16         -0.9790    -7.5660     9.4820 h1         1 9P1       0.003700
     39 H17         -0.9170     0.8660    -1.6500 hn         1 9P1       0.276300
     40 H18         -0.9520    -0.8670    -1.6300 hn         1 9P1       0.276300
     41 H19          1.7120     0.0140     5.7330 ha         1 9P1       0.109000
     42 H20         -1.8980     0.0710     3.4750 ha         1 9P1       0.118000
     43 H21         -1.7230    -1.8830     5.6680 hn         1 9P1       0.260800
     44 H23         -0.8460    -5.3700     9.8380 ha         1 9P1       0.114000
     45 C11         -0.9710    -0.0180     5.9810 c3         1 9P1       0.198100
@<TRIPOS>BOND
     1     1     5 ar  
     2     1    14 1   
     3     1    15 ar  
     4     2     3 ar  
     5     2     5 ar  
     6     2    23 1   
     7     3     6 ar  
     8     3    16 ar  
     9     4     7 1   
    10     4    20 1   
    11     4    26 1   
    12     4    27 1   
    13     5    28 1   
    14     6    17 ar  
    15     6    29 1   
    16     7     8 ar  
    17     7    11 ar  
    18     8    21 ar  
    19     8    30 1   
    20     9    10 ar  
    21     9    21 ar  
    22     9    22 1   
    23    10    11 ar  
    24    10    31 1   
    25    11    32 1   
    26    12    22 1   
    27    12    33 1   
    28    12    34 1   
    29    12    35 1   
    30    13    22 1   
    31    13    36 1   
    32    13    37 1   
    33    13    38 1   
    34    14    39 1   
    35    14    40 1   
    36    15    16 ar  
    37    16    19 ar  
    38    17    18 ar  
    39    17    41 1   
    40    18    19 ar  
    41    18    45 1   
    42    19    42 1   
    43    20    43 1   
    44    20    45 1   
    45    21    44 1   
    46    24    45 1   
    47    25    45 1   
@<TRIPOS>SUBSTRUCTURE
     1 9P1         1 TEMP              0 ****  ****    0 ROOT
