@<TRIPOS>MOLECULE
molecule
   78    84     1     0     0
SMALL
bcc


@<TRIPOS>ATOM
      1 C15          0.0000     0.0000     0.0000 ca         1 9P2      -0.115000
      2 C16          1.3860     0.0000     0.0000 ca         1 9P2       0.047100
      3 C17          2.0780     0.0000     1.2090 ca         1 9P2       0.047100
      4 C18          1.3780     0.0000     2.4030 ca         1 9P2      -0.092500
      5 C20          3.5380     0.4110    -0.4310 c3         1 9P2       0.331200
      6 C01          1.8980     1.0260     7.3640 cc         1 9P2       0.460000
      7 N02          1.3940    -0.1820     7.4700 nd         1 9P2      -0.675000
      8 C03          0.1990    -0.2160     6.8530 cd         1 9P2       0.361800
      9 C04         -0.0500     1.0210     6.3450 cc         1 9P2      -0.204900
     10 N05          1.0210     1.8050     6.6670 na         1 9P2      -0.156900
     11 C06          1.1960     3.2200     6.3270 c3         1 9P2       0.033300
     12 C07          1.8120     3.3370     4.9320 c3         1 9P2      -0.113400
     13 C08          1.9950     4.8140     4.5770 c3         1 9P2      -0.083400
     14 C09          2.6120     4.9310     3.1830 c3         1 9P2      -0.090100
     15 C10         -1.2740     1.4440     5.5730 c3         1 9P2       0.229100
     16 N11         -0.9890     1.3840     4.1330 n3         1 9P2      -0.724600
     17 C13         -0.0050     0.0000     2.3960 ca         1 9P2      -0.075300
     18 C14         -0.6920     0.0000     1.1960 ca         1 9P2      -0.130000
     19 O19          3.4180     0.0000     0.9440 os         1 9P2      -0.324900
     20 O21          2.2910    -0.0000    -1.0220 os         1 9P2      -0.325900
     21 C22         -2.0670     2.0120     3.3570 c3         1 9P2       0.205100
     22 C23         -1.9640     3.5110     3.4750 ca         1 9P2      -0.075300
     23 C24         -1.2290     4.2260     2.5490 ca         1 9P2      -0.092500
     24 C25         -1.1330     5.6040     2.6550 ca         1 9P2       0.047100
     25 O26         -0.4830     6.5280     1.8890 os         1 9P2      -0.324900
     26 C27         -0.4020     7.7130     2.7020 c3         1 9P2       0.331200
     27 O28         -1.5360     7.6040     3.5820 os         1 9P2      -0.325900
     28 C29         -1.7810     6.2660     3.6960 ca         1 9P2       0.047100
     29 C30         -2.5160     5.5410     4.6200 ca         1 9P2      -0.115000
     30 C31         -2.6120     4.1670     4.5050 ca         1 9P2      -0.130000
     31 C32         -0.6920    -1.3980     6.7460 ca         1 9P2      -0.102500
     32 C33         -0.1600    -2.6510     6.4470 ca         1 9P2      -0.117000
     33 C34         -0.9930    -3.7460     6.3480 ca         1 9P2      -0.131000
     34 C35         -2.3540    -3.6030     6.5460 ca         1 9P2      -0.129000
     35 C36         -2.8890    -2.3620     6.8430 ca         1 9P2      -0.131000
     36 C37         -2.0630    -1.2600     6.9500 ca         1 9P2      -0.117000
     37 C38          3.1960     1.4710     7.9170 ca         1 9P2      -0.110500
     38 C39          3.7990     0.7550     8.9520 ca         1 9P2      -0.116500
     39 C40          5.0100     1.1740     9.4630 ca         1 9P2      -0.130500
     40 C41          5.6280     2.3020     8.9510 ca         1 9P2      -0.122000
     41 C42          5.0350     3.0160     7.9240 ca         1 9P2      -0.130500
     42 C43          3.8260     2.6040     7.4000 ca         1 9P2      -0.116500
     43 H1          -0.5410     0.0000    -0.9380 ha         1 9P2       0.143500
     44 H2           1.9140    -0.0410     3.3440 ha         1 9P2       0.152000
     45 H3           3.6520     1.4870    -0.4960 h2         1 9P2       0.070200
     46 H4           4.3690    -0.0960    -0.9070 h2         1 9P2       0.070200
     47 H5           1.8510     3.6880     7.0520 h1         1 9P2       0.068200
     48 H6           0.2330     3.7160     6.3390 h1         1 9P2       0.068200
     49 H7           2.7750     2.8410     4.9200 hc         1 9P2       0.071200
     50 H8           1.1570     2.8700     4.2070 hc         1 9P2       0.071200
     51 H9           1.0320     5.3100     4.5890 hc         1 9P2       0.038200
     52 H10          2.6510     5.2810     5.3020 hc         1 9P2       0.038200
     53 H11          2.7610     5.9760     2.9400 hc         1 9P2       0.036700
     54 H12          1.9460     4.4830     2.4550 hc         1 9P2       0.036700
     55 H13          3.5650     4.4170     3.1650 hc         1 9P2       0.036700
     56 H14         -1.5400     2.4580     5.8470 h1         1 9P2       0.054200
     57 H15         -2.0960     0.7790     5.8060 h1         1 9P2       0.054200
     58 H17         -0.1890    -0.5260     4.4500 h1         1 9P2       0.052200
     59 H18         -1.7170    -0.4950     3.5590 h1         1 9P2       0.052200
     60 H19         -1.7750     0.0000     1.1940 ha         1 9P2       0.137000
     61 H20         -1.9790     1.7240     2.3170 h1         1 9P2       0.052200
     62 H21         -3.0260     1.6850     3.7420 h1         1 9P2       0.052200
     63 H22         -0.7770     3.7160     1.7070 ha         1 9P2       0.152000
     64 H23         -0.5030     8.5940     2.0800 h2         1 9P2       0.070200
     65 H24          0.5140     7.7000     3.2800 h2         1 9P2       0.070200
     66 H25         -3.0250     6.0530     5.4290 ha         1 9P2       0.143500
     67 H26         -3.2310     3.6080     5.1970 ha         1 9P2       0.137000
     68 H27          0.9060    -2.7650     6.2920 ha         1 9P2       0.139000
     69 H28         -0.5800    -4.7200     6.1150 ha         1 9P2       0.130000
     70 H29         -3.0050    -4.4650     6.4650 ha         1 9P2       0.128000
     71 H30         -3.9560    -2.2550     6.9990 ha         1 9P2       0.130000
     72 H31         -2.4820    -0.2890     7.1830 ha         1 9P2       0.139000
     73 H32          3.3170    -0.1280     9.3550 ha         1 9P2       0.149500
     74 H33          5.4790     0.6190    10.2670 ha         1 9P2       0.132000
     75 H34          6.5780     2.6280     9.3560 ha         1 9P2       0.130000
     76 H35          5.5240     3.8960     7.5250 ha         1 9P2       0.132000
     77 H36          3.3640     3.1640     6.5970 ha         1 9P2       0.149500
     78 C12         -0.7640    -0.0000     3.6970 c3         1 9P2       0.205100
@<TRIPOS>BOND
     1     5    20 1
     2     5    19 1
     3    20     2 1
     4    19     3 1
     5     2     3 ar
     6     2     1 ar
     7     3     4 ar
     8     1    18 ar
     9     4    17 ar
    10    18    17 ar
    11    17    78 1
    12    78    16 1
    13    39    38 ar
    14    39    40 ar
    15    33    32 ar
    16    33    34 ar
    17    32    31 ar
    18    38    37 ar
    19    40    41 ar
    20    37     6 1
    21    37    42 ar
    22     7     6 2
    23     7     8 1
    24    16    21 1
    25    16    15 1
    26    30    29 ar
    27    30    22 ar
    28    34    35 ar
    29     6    10 1
    30    31     8 1
    31    31    36 ar
    32     8     9 2
    33    41    42 ar
    34    29    28 ar
    35    10     9 1
    36    10    11 1
    37    21    22 1
    38     9    15 1
    39    11    12 1
    40    22    23 ar
    41    35    36 ar
    42    28    27 1
    43    28    24 ar
    44    23    24 ar
    45    27    26 1
    46    12    13 1
    47    24    25 1
    48    13    14 1
    49    26    25 1
    50     1    43 1
    51     4    44 1
    52     5    45 1
    53     5    46 1
    54    11    47 1
    55    11    48 1
    56    12    49 1
    57    12    50 1
    58    13    51 1
    59    13    52 1
    60    14    53 1
    61    14    54 1
    62    14    55 1
    63    15    56 1
    64    15    57 1
    65    78    58 1
    66    78    59 1
    67    18    60 1
    68    21    61 1
    69    21    62 1
    70    23    63 1
    71    26    64 1
    72    26    65 1
    73    29    66 1
    74    30    67 1
    75    32    68 1
    76    33    69 1
    77    34    70 1
    78    35    71 1
    79    36    72 1
    80    38    73 1
    81    39    74 1
    82    40    75 1
    83    41    76 1
    84    42    77 1
@<TRIPOS>SUBSTRUCTURE
     1 9P2         1 TEMP              0 ****  ****    0 ROOT
