@<TRIPOS>MOLECULE
9P2
   78    84     1     0     0
SMALL
bcc


@<TRIPOS>ATOM
      1 C15          0.0000     0.0000     0.0000 ca         1 9P2      -0.087500
      2 C16          1.3860     0.0000     0.0000 ca         1 9P2       0.053600
      3 C17          2.0780     0.0000     1.2090 ca         1 9P2       0.056100
      4 C18          1.3780     0.0000     2.4030 ca         1 9P2      -0.070000
      5 C20          3.5380     0.4110    -0.4310 c3         1 9P2       0.429200
      6 C01          1.8980     1.0260     7.3640 cc         1 9P2       0.255000
      7 N02          1.3940    -0.1820     7.4700 nd         1 9P2      -0.590000
      8 C03          0.1990    -0.2160     6.8530 cd         1 9P2       0.344800
      9 C04         -0.0500     1.0210     6.3450 cc         1 9P2      -0.399900
     10 N05          1.0210     1.8050     6.6670 na         1 9P2       0.342100
     11 C06          1.1960     3.2200     6.3270 c3         1 9P2      -0.077700
     12 C07          1.8120     3.3370     4.9320 c3         1 9P2      -0.073400
     13 C08          1.9950     4.8140     4.5770 c3         1 9P2      -0.027400
     14 C09          2.6120     4.9310     3.1830 c3         1 9P2       0.002900
     15 C10         -1.2740     1.4440     5.5730 c3         1 9P2       0.222100
     16 N11         -0.9890     1.3840     4.1330 n3         1 9P2      -0.532600
     17 C13         -0.0050     0.0000     2.3960 ca         1 9P2      -0.085800
     18 C14         -0.6920     0.0000     1.1960 ca         1 9P2      -0.108000
     19 O19          3.4180     0.0000     0.9440 os         1 9P2      -0.312400
     20 O21          2.2910    -0.0000    -1.0220 os         1 9P2      -0.312900
     21 C22         -2.0670     2.0120     3.3570 c3         1 9P2       0.190100
     22 C23         -1.9640     3.5110     3.4750 ca         1 9P2      -0.085800
     23 C24         -1.2290     4.2260     2.5490 ca         1 9P2      -0.070000
     24 C25         -1.1330     5.6040     2.6550 ca         1 9P2       0.056100
     25 O26         -0.4830     6.5280     1.8890 os         1 9P2      -0.312400
     26 C27         -0.4020     7.7130     2.7020 c3         1 9P2       0.429200
     27 O28         -1.5360     7.6040     3.5820 os         1 9P2      -0.312900
     28 C29         -1.7810     6.2660     3.6960 ca         1 9P2       0.053600
     29 C30         -2.5160     5.5410     4.6200 ca         1 9P2      -0.087500
     30 C31         -2.6120     4.1670     4.5050 ca         1 9P2      -0.108000
     31 C32         -0.6920    -1.3980     6.7460 ca         1 9P2      -0.095500
     32 C33         -0.1600    -2.6510     6.4470 ca         1 9P2      -0.098500
     33 C34         -0.9930    -3.7460     6.3480 ca         1 9P2      -0.102500
     34 C35         -2.3540    -3.6030     6.5460 ca         1 9P2      -0.105000
     35 C36         -2.8890    -2.3620     6.8430 ca         1 9P2      -0.102500
     36 C37         -2.0630    -1.2600     6.9500 ca         1 9P2      -0.098500
     37 C38          3.1960     1.4710     7.9170 ca         1 9P2      -0.099500
     38 C39          3.7990     0.7550     8.9520 ca         1 9P2      -0.112000
     39 C40          5.0100     1.1740     9.4630 ca         1 9P2      -0.096500
     40 C41          5.6280     2.3020     8.9510 ca         1 9P2      -0.101000
     41 C42          5.0350     3.0160     7.9240 ca         1 9P2      -0.096500
     42 C43          3.8260     2.6040     7.4000 ca         1 9P2      -0.112000
     43 H1          -0.5410     0.0000    -0.9380 ha         1 9P2       0.112500
     44 H2           1.9140    -0.0410     3.3440 ha         1 9P2       0.121000
     45 H3           3.6520     1.4870    -0.4960 h2         1 9P2       0.013450
     46 H4           4.3690    -0.0960    -0.9070 h2         1 9P2       0.013450
     47 H5           1.8510     3.6880     7.0520 h1         1 9P2       0.050200
     48 H6           0.2330     3.7160     6.3390 h1         1 9P2       0.050200
     49 H7           2.7750     2.8410     4.9200 hc         1 9P2       0.046700
     50 H8           1.1570     2.8700     4.2070 hc         1 9P2       0.046700
     51 H9           1.0320     5.3100     4.5890 hc         1 9P2       0.012700
     52 H10          2.6510     5.2810     5.3020 hc         1 9P2       0.012700
     53 H11          2.7610     5.9760     2.9400 hc         1 9P2       0.004700
     54 H12          1.9460     4.4830     2.4550 hc         1 9P2       0.004700
     55 H13          3.5650     4.4170     3.1650 hc         1 9P2       0.004700
     56 H14         -1.5400     2.4580     5.8470 h1         1 9P2       0.030200
     57 H15         -2.0960     0.7790     5.8060 h1         1 9P2       0.030200
     58 H17         -0.1890    -0.5260     4.4500 h1         1 9P2       0.027700
     59 H18         -1.7170    -0.4950     3.5590 h1         1 9P2       0.027700
     60 H19         -1.7750     0.0000     1.1940 ha         1 9P2       0.112000
     61 H20         -1.9790     1.7240     2.3170 h1         1 9P2       0.027700
     62 H21         -3.0260     1.6850     3.7420 h1         1 9P2       0.027700
     63 H22         -0.7770     3.7160     1.7070 ha         1 9P2       0.121000
     64 H23         -0.5030     8.5940     2.0800 h2         1 9P2       0.013450
     65 H24          0.5140     7.7000     3.2800 h2         1 9P2       0.013450
     66 H25         -3.0250     6.0530     5.4290 ha         1 9P2       0.112500
     67 H26         -3.2310     3.6080     5.1970 ha         1 9P2       0.112000
     68 H27          0.9060    -2.7650     6.2920 ha         1 9P2       0.114500
     69 H28         -0.5800    -4.7200     6.1150 ha         1 9P2       0.102000
     70 H29         -3.0050    -4.4650     6.4650 ha         1 9P2       0.101000
     71 H30         -3.9560    -2.2550     6.9990 ha         1 9P2       0.102000
     72 H31         -2.4820    -0.2890     7.1830 ha         1 9P2       0.114500
     73 H32          3.3170    -0.1280     9.3550 ha         1 9P2       0.129000
     74 H33          5.4790     0.6190    10.2670 ha         1 9P2       0.102500
     75 H34          6.5780     2.6280     9.3560 ha         1 9P2       0.102000
     76 H35          5.5240     3.8960     7.5250 ha         1 9P2       0.102500
     77 H36          3.3640     3.1640     6.5970 ha         1 9P2       0.129000
     78 C12         -0.7640    -0.0000     3.6970 c3         1 9P2       0.190100
@<TRIPOS>BOND
     1     1     2 ar  
     2     1    18 ar  
     3     1    43 1   
     4     2     3 ar  
     5     2    20 1   
     6     3     4 ar  
     7     3    19 1   
     8     4    17 ar  
     9     4    44 1   
    10     5    19 1   
    11     5    20 1   
    12     5    45 1   
    13     5    46 1   
    14     6     7 2   
    15     6    10 1   
    16     6    37 1   
    17     7     8 1   
    18     8     9 2   
    19     8    31 1   
    20     9    10 1   
    21     9    15 1   
    22    10    11 1   
    23    11    12 1   
    24    11    47 1   
    25    11    48 1   
    26    12    13 1   
    27    12    49 1   
    28    12    50 1   
    29    13    14 1   
    30    13    51 1   
    31    13    52 1   
    32    14    53 1   
    33    14    54 1   
    34    14    55 1   
    35    15    16 1   
    36    15    56 1   
    37    15    57 1   
    38    16    21 1   
    39    16    78 1   
    40    17    18 ar  
    41    17    78 1   
    42    18    60 1   
    43    21    22 1   
    44    21    61 1   
    45    21    62 1   
    46    22    23 ar  
    47    22    30 ar  
    48    23    24 ar  
    49    23    63 1   
    50    24    25 1   
    51    24    28 ar  
    52    25    26 1   
    53    26    27 1   
    54    26    64 1   
    55    26    65 1   
    56    27    28 1   
    57    28    29 ar  
    58    29    30 ar  
    59    29    66 1   
    60    30    67 1   
    61    31    32 ar  
    62    31    36 ar  
    63    32    33 ar  
    64    32    68 1   
    65    33    34 ar  
    66    33    69 1   
    67    34    35 ar  
    68    34    70 1   
    69    35    36 ar  
    70    35    71 1   
    71    36    72 1   
    72    37    38 ar  
    73    37    42 ar  
    74    38    39 ar  
    75    38    73 1   
    76    39    40 ar  
    77    39    74 1   
    78    40    41 ar  
    79    40    75 1   
    80    41    42 ar  
    81    41    76 1   
    82    42    77 1   
    83    58    78 1   
    84    59    78 1   
@<TRIPOS>SUBSTRUCTURE
     1 9P2         1 TEMP              0 ****  ****    0 ROOT
