@<TRIPOS>MOLECULE
9P4
   42    44     1     0     0
SMALL
bcc


@<TRIPOS>ATOM
      1 F23          0.0000     0.0000     0.0000 f          1 9P4      -0.119900
      2 C23          1.3500     0.0000     0.0000 ca         1 9P4      -0.009400
      3 C22          2.0510     0.0000     1.1940 ca         1 9P4       0.371200
      4 N21          3.3700     0.0010     1.2010 nb         1 9P4      -0.553000
      5 C26          4.0700     0.0000     0.0840 ca         1 9P4       0.393200
      6 C24          2.0550    -0.0040    -1.1960 ca         1 9P4      -0.101000
      7 C25          3.4400     0.0010    -1.1460 ca         1 9P4      -0.181600
      8 C15          4.2490     0.0020    -2.4180 c3         1 9P4       0.035900
      9 C14          4.5240    -1.4400    -2.8480 c3         1 9P4      -0.028400
     10 C13          5.3450    -1.4390    -4.1390 c3         1 9P4       0.142800
     11 N12          5.6090    -2.8240    -4.5520 n7         1 9P4      -0.582200
     12 C11          6.3980    -2.8630    -5.7910 c3         1 9P4       0.201100
     13 C08          6.6480    -4.2950    -6.1840 ca         1 9P4      -0.086300
     14 C07          7.7820    -4.9490    -5.7070 ca         1 9P4      -0.079000
     15 C06          8.0310    -6.2470    -6.0390 ca         1 9P4      -0.082000
     16 C09          5.7590    -4.9340    -6.9950 ca         1 9P4      -0.141300
     17 C10          5.9860    -6.2700    -7.3640 ca         1 9P4       0.381600
     18 N01          5.1290    -6.9200    -8.1580 nb         1 9P4      -0.581000
     19 C05          7.1370    -6.9350    -6.8720 ca         1 9P4      -0.151300
     20 C04          7.3620    -8.2780    -7.2380 ca         1 9P4      -0.053000
     21 C03          6.4540    -8.8870    -8.0510 ca         1 9P4      -0.223300
     22 C02          5.3360    -8.1740    -8.5080 ca         1 9P4       0.504200
     23 N02          4.4210    -8.8070    -9.3330 nv         1 9P4      -0.662500
     24 H1           1.5110     0.0000     2.1330 h4         1 9P4      -0.005900
     25 H2           5.1520     0.0020     0.1310 h4         1 9P4      -0.012900
     26 H3           1.5340    -0.0030    -2.1460 ha         1 9P4       0.126000
     27 H4           3.6960     0.5130    -3.1970 hc         1 9P4       0.021700
     28 H5           5.1890     0.5140    -2.2470 hc         1 9P4       0.021700
     29 H6           3.5850    -1.9520    -3.0180 hc         1 9P4       0.024700
     30 H7           5.0770    -1.9510    -2.0690 hc         1 9P4       0.024700
     31 H8           4.7930    -0.9290    -4.9180 h1         1 9P4       0.006700
     32 H9           6.2850    -0.9280    -3.9690 h1         1 9P4       0.006700
     33 H10          4.7410    -3.3010    -4.6940 hn         1 9P4       0.258800
     34 H12          7.3440    -2.3610    -5.6320 h1         1 9P4       0.010700
     35 H13          5.8520    -2.3620    -6.5820 h1         1 9P4       0.010700
     36 H14          8.4740    -4.4190    -5.0640 ha         1 9P4       0.109000
     37 H15          8.9160    -6.7450    -5.6610 ha         1 9P4       0.107000
     38 H16          4.9290    -4.3870    -7.4260 ha         1 9P4       0.117000
     39 H17          8.2310    -8.8140    -6.8760 ha         1 9P4       0.110000
     40 H18          6.6010    -9.9170    -8.3530 ha         1 9P4       0.116000
     41 H19          4.5280    -8.7610   -10.3270 hn         1 9P4       0.276800
     42 H20          3.6360    -9.2850    -8.9360 hn         1 9P4       0.276800
@<TRIPOS>BOND
     1     1     2 1   
     2     2     3 ar  
     3     2     6 ar  
     4     3     4 ar  
     5     3    24 1   
     6     4     5 ar  
     7     5     7 ar  
     8     5    25 1   
     9     6     7 ar  
    10     6    26 1   
    11     7     8 1   
    12     8     9 1   
    13     8    27 1   
    14     8    28 1   
    15     9    10 1   
    16     9    29 1   
    17     9    30 1   
    18    10    11 1   
    19    10    31 1   
    20    10    32 1   
    21    11    12 1   
    22    11    33 1   
    23    12    13 1   
    24    12    34 1   
    25    12    35 1   
    26    13    14 ar  
    27    13    16 ar  
    28    14    15 ar  
    29    14    36 1   
    30    15    19 ar  
    31    15    37 1   
    32    16    17 ar  
    33    16    38 1   
    34    17    18 ar  
    35    17    19 ar  
    36    18    22 ar  
    37    19    20 ar  
    38    20    21 ar  
    39    20    39 1   
    40    21    22 ar  
    41    21    40 1   
    42    22    23 1   
    43    23    41 1   
    44    23    42 1   
@<TRIPOS>SUBSTRUCTURE
     1 9P4         1 TEMP              0 ****  ****    0 ROOT
