@<TRIPOS>MOLECULE
molecule
   65    68     1     0     0
SMALL
bcc


@<TRIPOS>ATOM
      1 C3           0.0000     0.0000     0.0000 cc         1 9P6       0.380200
      2 C4           1.4090     0.0000     0.0000 cc         1 9P6      -0.339800
      3 C5           1.8200     0.0000     1.3290 cd         1 9P6      -0.001300
      4 C6           2.2850    -0.0010    -1.1890 cc         1 9P6       0.595900
      5 N1           0.6920    -0.0000     2.0930 na         1 9P6       0.089400
      6 N2          -0.4140    -0.0000     1.2380 nd         1 9P6      -0.518800
      7 C8           2.8090    -0.0030    -3.3580 cd         1 9P6       0.397600
      8 C9           4.0700    -0.0010    -2.9220 cc         1 9P6      -0.198400
      9 C11          0.6470     0.0010     3.5570 c3         1 9P6       0.085700
     10 C12          1.3870     1.2290     4.0910 c3         1 9P6      -0.099433
     11 C13         -0.8100     0.0420     4.0220 c3         1 9P6      -0.099433
     12 C14          3.2130    -0.0000     1.8180 ca         1 9P6      -0.089000
     13 C15          3.9000     1.2070     1.9780 ca         1 9P6      -0.061500
     14 O25          1.2230    -1.9200    -4.2440 o          1 9P6      -0.578100
     15 C23          1.5600    -1.1660    -5.1320 c          1 9P6       0.657100
     16 N24          1.1240    -1.3690    -6.3910 ns         1 9P6      -0.595900
     17 C26          0.2420    -2.4990    -6.6870 c3         1 9P6       0.119000
     18 C27         -0.1030    -2.5000    -8.1780 c3         1 9P6      -0.091700
     19 C32         -0.9230    -3.7500    -8.5140 c3         1 9P6      -0.113400
     20 C31         -1.3300    -3.7020    -9.9890 c3         1 9P6       0.137900
     21 O30         -2.0690    -2.5050   -10.2400 os         1 9P6      -0.419600
     22 C29         -1.3370    -1.3040    -9.9880 c3         1 9P6       0.137900
     23 C28         -0.9300    -1.2540    -8.5140 c3         1 9P6      -0.113400
     24 C22          2.4680    -0.0030    -4.8260 c3         1 9P6      -0.178700
     25 N7           1.8800    -0.0020    -2.4270 nd         1 9P6      -0.668000
     26 S10          4.0470     0.0060    -1.1600 ss         1 9P6      -0.248300
     27 C33          1.3150    -1.2690     4.0890 c3         1 9P6      -0.099433
     28 C19          3.8470    -1.2050     2.1270 ca         1 9P6      -0.061500
     29 C18          5.1460    -1.2000     2.5880 ca         1 9P6      -0.196500
     30 C17          5.8240     0.0010     2.7460 ca         1 9P6       0.155100
     31 O20          7.1040     0.0010     3.2000 os         1 9P6      -0.325900
     32 C21          7.7440     1.2720     3.3390 c3         1 9P6       0.127700
     33 C16          5.2000     1.2020     2.4350 ca         1 9P6      -0.196500
     34 H1          -0.6330     0.0000    -0.8790 h4         1 9P6       0.068100
     35 H2           4.9570     0.0000    -3.5450 h4         1 9P6       0.173000
     36 H3           1.3300     2.0300     3.3640 hc         1 9P6       0.050144
     37 H4           0.9310     1.5500     5.0190 hc         1 9P6       0.050144
     38 H5           2.4260     0.9750     4.2670 hc         1 9P6       0.050144
     39 H6          -1.2850     0.9390     3.6430 hc         1 9P6       0.050144
     40 H7          -0.8440     0.0470     5.1050 hc         1 9P6       0.050144
     41 H8          -1.3340    -0.8290     3.6490 hc         1 9P6       0.050144
     42 H9           3.4130     2.1440     1.7360 ha         1 9P6       0.144500
     43 H10          1.4370    -0.7720    -7.1310 hn         1 9P6       0.308500
     44 H11          0.7430    -3.4250    -6.4320 h1         1 9P6       0.055700
     45 H12         -0.6680    -2.4090    -6.1060 h1         1 9P6       0.055700
     46 H13          0.8070    -2.4970    -8.7650 hc         1 9P6       0.050700
     47 H14         -1.8120    -3.7750    -7.8950 hc         1 9P6       0.054700
     48 H15         -0.3240    -4.6340    -8.3330 hc         1 9P6       0.054700
     49 H16         -0.4410    -3.7130   -10.6080 h1         1 9P6       0.046450
     50 H17         -1.9480    -4.5620   -10.2210 h1         1 9P6       0.046450
     51 H18         -0.4480    -1.2870   -10.6070 h1         1 9P6       0.046450
     52 H19         -1.9600    -0.4480   -10.2180 h1         1 9P6       0.046450
     53 H20         -0.3360    -0.3670    -8.3330 hc         1 9P6       0.054700
     54 H21         -1.8190    -1.2340    -7.8940 hc         1 9P6       0.054700
     55 H22          1.9670     0.9230    -5.0810 hc         1 9P6       0.067700
     56 H23          3.3780    -0.0930    -5.4070 hc         1 9P6       0.067700
     57 H24          0.7980    -1.6030     4.9800 hc         1 9P6       0.050144
     58 H25          1.2710    -2.0440     3.3330 hc         1 9P6       0.050144
     59 H26          2.3500    -1.0580     4.3300 hc         1 9P6       0.050144
     60 H27          3.3180    -2.1430     2.0050 ha         1 9P6       0.144500
     61 H28          5.6390    -2.1350     2.8280 ha         1 9P6       0.144500
     62 H29          7.1930     1.8780     4.0490 h1         1 9P6       0.043367
     63 H30          8.7570     1.1300     3.6960 h1         1 9P6       0.043367
     64 H31          7.7660     1.7730     2.3790 h1         1 9P6       0.043367
     65 H32          5.7330     2.1370     2.5590 ha         1 9P6       0.144500
@<TRIPOS>BOND
     1    23    22 1
     2    23    18 1
     3    14    15 2
     4    22    21 1
     5    17    18 1
     6    17    16 1
     7    18    19 1
     8    15    16 1
     9    15    24 1
    10    21    20 1
    11    19    20 1
    12    24     7 1
    13     8     7 2
    14     8    26 1
    15     7    25 1
    16    32    31 1
    17    26     4 1
    18    25     4 2
    19     4     2 1
    20    31    30 1
    21    29    30 ar
    22    29    28 ar
    23    30    33 ar
    24    28    12 ar
    25     2     3 2
    26     2     1 1
    27    33    13 ar
    28    12    13 ar
    29    12     3 1
    30     3     5 1
    31     1     6 2
    32     5     6 1
    33     5     9 1
    34    11     9 1
    35     9    10 1
    36     9    27 1
    37     1    34 1
    38     8    35 1
    39    10    36 1
    40    10    37 1
    41    10    38 1
    42    11    39 1
    43    11    40 1
    44    11    41 1
    45    13    42 1
    46    16    43 1
    47    17    44 1
    48    17    45 1
    49    18    46 1
    50    19    47 1
    51    19    48 1
    52    20    49 1
    53    20    50 1
    54    22    51 1
    55    22    52 1
    56    23    53 1
    57    23    54 1
    58    24    55 1
    59    24    56 1
    60    27    57 1
    61    27    58 1
    62    27    59 1
    63    28    60 1
    64    29    61 1
    65    32    62 1
    66    32    63 1
    67    32    64 1
    68    33    65 1
@<TRIPOS>SUBSTRUCTURE
     1 9P6         1 TEMP              0 ****  ****    0 ROOT
