@<TRIPOS>MOLECULE
9P6
   65    68     1     0     0
SMALL
bcc


@<TRIPOS>ATOM
      1 C3           0.0000     0.0000     0.0000 cc         1 9P6       0.440200
      2 C4           1.4090     0.0000     0.0000 cc         1 9P6      -0.356800
      3 C5           1.8200     0.0000     1.3290 cd         1 9P6      -0.148300
      4 C6           2.2850    -0.0010    -1.1890 cc         1 9P6       0.598900
      5 N1           0.6920    -0.0000     2.0930 na         1 9P6       0.520400
      6 N2          -0.4140    -0.0000     1.2380 nd         1 9P6      -0.659800
      7 C8           2.8090    -0.0030    -3.3580 cd         1 9P6       0.357600
      8 C9           4.0700    -0.0010    -2.9220 cc         1 9P6      -0.134400
      9 C11          0.6470     0.0010     3.5570 c3         1 9P6      -0.055300
     10 C12          1.3870     1.2290     4.0910 c3         1 9P6      -0.016100
     11 C13         -0.8100     0.0420     4.0220 c3         1 9P6      -0.016100
     12 C14          3.2130    -0.0000     1.8180 ca         1 9P6      -0.079000
     13 C15          3.9000     1.2070     1.9780 ca         1 9P6      -0.033000
     14 O25          1.2230    -1.9200    -4.2440 o          1 9P6      -0.622100
     15 C23          1.5600    -1.1660    -5.1320 c          1 9P6       0.571100
     16 N24          1.1240    -1.3690    -6.3910 ns         1 9P6      -0.213900
     17 C26          0.2420    -2.4990    -6.6870 c3         1 9P6       0.056000
     18 C27         -0.1030    -2.5000    -8.1780 c3         1 9P6      -0.063700
     19 C32         -0.9230    -3.7500    -8.5140 c3         1 9P6      -0.064900
     20 C31         -1.3300    -3.7020    -9.9890 c3         1 9P6       0.215400
     21 O30         -2.0690    -2.5050   -10.2400 os         1 9P6      -0.406600
     22 C29         -1.3370    -1.3040    -9.9880 c3         1 9P6       0.215400
     23 C28         -0.9300    -1.2540    -8.5140 c3         1 9P6      -0.064900
     24 C22          2.4680    -0.0030    -4.8260 c3         1 9P6      -0.117700
     25 N7           1.8800    -0.0020    -2.4270 nd         1 9P6      -0.546000
     26 S10          4.0470     0.0060    -1.1600 ss         1 9P6      -0.353300
     27 C33          1.3150    -1.2690     4.0890 c3         1 9P6      -0.016100
     28 C19          3.8470    -1.2050     2.1270 ca         1 9P6      -0.033000
     29 C18          5.1460    -1.2000     2.5880 ca         1 9P6      -0.179000
     30 C17          5.8240     0.0010     2.7460 ca         1 9P6       0.163100
     31 O20          7.1040     0.0010     3.2000 os         1 9P6      -0.306900
     32 C21          7.7440     1.2720     3.3390 c3         1 9P6       0.243700
     33 C16          5.2000     1.2020     2.4350 ca         1 9P6      -0.179000
     34 H1          -0.6330     0.0000    -0.8790 h4         1 9P6       0.019100
     35 H2           4.9570     0.0000    -3.5450 h4         1 9P6       0.156000
     36 H3           1.3300     2.0300     3.3640 hc         1 9P6       0.020589
     37 H4           0.9310     1.5500     5.0190 hc         1 9P6       0.020589
     38 H5           2.4260     0.9750     4.2670 hc         1 9P6       0.020589
     39 H6          -1.2850     0.9390     3.6430 hc         1 9P6       0.020589
     40 H7          -0.8440     0.0470     5.1050 hc         1 9P6       0.020589
     41 H8          -1.3340    -0.8290     3.6490 hc         1 9P6       0.020589
     42 H9           3.4130     2.1440     1.7360 ha         1 9P6       0.112000
     43 H10          1.4370    -0.7720    -7.1310 hn         1 9P6       0.173500
     44 H11          0.7430    -3.4250    -6.4320 h1         1 9P6       0.029700
     45 H12         -0.6680    -2.4090    -6.1060 h1         1 9P6       0.029700
     46 H13          0.8070    -2.4970    -8.7650 hc         1 9P6       0.028700
     47 H14         -1.8120    -3.7750    -7.8950 hc         1 9P6       0.027200
     48 H15         -0.3240    -4.6340    -8.3330 hc         1 9P6       0.027200
     49 H16         -0.4410    -3.7130   -10.6080 h1         1 9P6       0.007200
     50 H17         -1.9480    -4.5620   -10.2210 h1         1 9P6       0.007200
     51 H18         -0.4480    -1.2870   -10.6070 h1         1 9P6       0.007200
     52 H19         -1.9600    -0.4480   -10.2180 h1         1 9P6       0.007200
     53 H20         -0.3360    -0.3670    -8.3330 hc         1 9P6       0.027200
     54 H21         -1.8190    -1.2340    -7.8940 hc         1 9P6       0.027200
     55 H22          1.9670     0.9230    -5.0810 hc         1 9P6       0.031700
     56 H23          3.3780    -0.0930    -5.4070 hc         1 9P6       0.031700
     57 H24          0.7980    -1.6030     4.9800 hc         1 9P6       0.020589
     58 H25          1.2710    -2.0440     3.3330 hc         1 9P6       0.020589
     59 H26          2.3500    -1.0580     4.3300 hc         1 9P6       0.020589
     60 H27          3.3180    -2.1430     2.0050 ha         1 9P6       0.112000
     61 H28          5.6390    -2.1350     2.8280 ha         1 9P6       0.121500
     62 H29          7.1930     1.8780     4.0490 h1         1 9P6      -0.001633
     63 H30          8.7570     1.1300     3.6960 h1         1 9P6      -0.001633
     64 H31          7.7660     1.7730     2.3790 h1         1 9P6      -0.001633
     65 H32          5.7330     2.1370     2.5590 ha         1 9P6       0.121500
@<TRIPOS>BOND
     1     1     2 1   
     2     1     6 2   
     3     1    34 1   
     4     2     3 2   
     5     2     4 1   
     6     3     5 1   
     7     3    12 1   
     8     4    25 2   
     9     4    26 1   
    10     5     6 1   
    11     5     9 1   
    12     7     8 2   
    13     7    24 1   
    14     7    25 1   
    15     8    26 1   
    16     8    35 1   
    17     9    10 1   
    18     9    11 1   
    19     9    27 1   
    20    10    36 1   
    21    10    37 1   
    22    10    38 1   
    23    11    39 1   
    24    11    40 1   
    25    11    41 1   
    26    12    13 ar  
    27    12    28 ar  
    28    13    33 ar  
    29    13    42 1   
    30    14    15 2   
    31    15    16 1   
    32    15    24 1   
    33    16    17 1   
    34    16    43 1   
    35    17    18 1   
    36    17    44 1   
    37    17    45 1   
    38    18    19 1   
    39    18    23 1   
    40    18    46 1   
    41    19    20 1   
    42    19    47 1   
    43    19    48 1   
    44    20    21 1   
    45    20    49 1   
    46    20    50 1   
    47    21    22 1   
    48    22    23 1   
    49    22    51 1   
    50    22    52 1   
    51    23    53 1   
    52    23    54 1   
    53    24    55 1   
    54    24    56 1   
    55    27    57 1   
    56    27    58 1   
    57    27    59 1   
    58    28    29 ar  
    59    28    60 1   
    60    29    30 ar  
    61    29    61 1   
    62    30    31 1   
    63    30    33 ar  
    64    31    32 1   
    65    32    62 1   
    66    32    63 1   
    67    32    64 1   
    68    33    65 1   
@<TRIPOS>SUBSTRUCTURE
     1 9P6         1 TEMP              0 ****  ****    0 ROOT
