@<TRIPOS>MOLECULE
9P7
   44    46     1     0     0
SMALL
bcc


@<TRIPOS>ATOM
      1 C10          0.0000     0.0000     0.0000 ca         1 9P7       0.385600
      2 C11          3.5880    -0.0010     1.1740 c3         1 9P7       0.172100
      3 C13          5.5470     1.4220     1.1630 c3         1 9P7       0.108800
      4 C14          6.0200     2.8770     1.1590 c3         1 9P7      -0.062100
      5 N29         12.8620     3.0460     1.1300 n1         1 9P7      -0.388800
      6 C24         10.2950     2.9880     1.1380 ca         1 9P7       0.031000
      7 C25          9.6000     2.9710     2.3490 ca         1 9P7      -0.063000
      8 C23          9.5870     2.9690    -0.0650 ca         1 9P7      -0.021300
      9 C27         10.3290     2.9860    -1.3780 c3         1 9P7       0.040200
     10 C22          8.2090     2.9330    -0.0520 ca         1 9P7      -0.123000
     11 C21          7.5260     2.9160     1.1520 ca         1 9P7      -0.047300
     12 C26          8.2200     2.9300     2.3490 ca         1 9P7      -0.139000
     13 N12          4.0790     1.3840     1.1700 n7         1 9P7      -0.587200
     14 C08          2.0810     0.0000     1.1810 ca         1 9P7      -0.024300
     15 C09          1.4050     0.0000     0.0000 ca         1 9P7      -0.154300
     16 C07          1.4010     0.0010     2.3980 ca         1 9P7      -0.106000
     17 C06          0.0400    -0.0030     2.4360 ca         1 9P7      -0.100000
     18 C05         -0.6890    -0.0040     1.2370 ca         1 9P7      -0.163300
     19 C04         -2.0990    -0.0090     1.2380 ca         1 9P7      -0.065000
     20 C03         -2.7450    -0.0090     0.0380 ca         1 9P7      -0.223300
     21 C02         -2.0060    -0.0050    -1.1530 ca         1 9P7       0.525200
     22 N02         -2.6770    -0.0050    -2.3670 nv         1 9P7      -0.630500
     23 N01         -0.6890    -0.0010    -1.1470 nb         1 9P7      -0.599000
     24 H1           3.6870    -0.0480     0.0970 h1         1 9P7       0.029700
     25 H2           4.4460    -0.3560     1.7310 h1         1 9P7       0.029700
     26 H3           5.8160     0.9290     0.2370 h1         1 9P7       0.014200
     27 H4           6.2650     1.1310     1.9200 h1         1 9P7       0.014200
     28 H5           5.2320     3.4930     1.5760 hc         1 9P7       0.055200
     29 H6           6.2770     3.0850     0.1280 hc         1 9P7       0.055200
     30 H7           9.8770     2.7470     3.3720 ha         1 9P7       0.122000
     31 H8          11.3970     3.0840    -1.5340 hc         1 9P7       0.016367
     32 H9           9.7700     3.4660    -2.1720 hc         1 9P7       0.016367
     33 H10         10.1570     1.9360    -1.5830 hc         1 9P7       0.016367
     34 H11          7.6310     2.9630    -0.9680 ha         1 9P7       0.120000
     35 H12          7.6320     3.1480     3.2320 ha         1 9P7       0.121000
     36 H13          4.1560     1.6990     0.2230 hn         1 9P7       0.249800
     37 H15          1.8240    -0.0460    -0.9980 ha         1 9P7       0.124000
     38 H16          1.8290    -0.0690     3.3900 ha         1 9P7       0.109000
     39 H17         -0.1950    -0.0830     3.4910 ha         1 9P7       0.115000
     40 H18         -2.3980    -0.1590     2.2680 ha         1 9P7       0.119000
     41 H19         -3.8090    -0.0980     0.2220 ha         1 9P7       0.118000
     42 H20         -2.7280     0.7040    -3.0720 hn         1 9P7       0.274800
     43 H21         -3.1940    -0.8550    -2.4790 hn         1 9P7       0.274800
     44 C28         11.7260     3.0310     1.1310 cg         1 9P7       0.240800
@<TRIPOS>BOND
     1     1    15 ar  
     2     1    18 ar  
     3     1    23 ar  
     4     2    13 1   
     5     2    14 1   
     6     2    24 1   
     7     2    25 1   
     8     3     4 1   
     9     3    13 1   
    10     3    26 1   
    11     3    27 1   
    12     4    11 1   
    13     4    28 1   
    14     4    29 1   
    15     5    44 3   
    16     6     7 ar  
    17     6     8 ar  
    18     6    44 1   
    19     7    12 ar  
    20     7    30 1   
    21     8     9 1   
    22     8    10 ar  
    23     9    31 1   
    24     9    32 1   
    25     9    33 1   
    26    10    11 ar  
    27    10    34 1   
    28    11    12 ar  
    29    12    35 1   
    30    13    36 1   
    31    14    15 ar  
    32    14    16 ar  
    33    15    37 1   
    34    16    17 ar  
    35    16    38 1   
    36    17    18 ar  
    37    17    39 1   
    38    18    19 ar  
    39    19    20 ar  
    40    19    40 1   
    41    20    21 ar  
    42    20    41 1   
    43    21    22 1   
    44    21    23 ar  
    45    22    42 1   
    46    22    43 1   
@<TRIPOS>SUBSTRUCTURE
     1 9P7         1 TEMP              0 ****  ****    0 ROOT
