@<TRIPOS>MOLECULE
molecule
   57    58     1     0     0
SMALL
bcc


@<TRIPOS>ATOM
      1 O1           0.0000     0.0000     0.0000 o          1 9PA      -0.826300
      2 C2           1.3470     0.0000     0.0000 c          1 9PA       0.886200
      3 O3           1.9550     0.0000     1.0520 o          1 9PA      -0.826300
      4 C4           2.0840    -0.0020    -1.2780 ca         1 9PA      -0.054600
      5 C5           2.5260    -1.2080    -1.8330 ca         1 9PA       0.069100
      6 O6           2.4090    -2.4960    -1.4060 os         1 9PA      -0.298900
      7 C7           3.3910    -3.2400    -2.1530 c3         1 9PA       0.326200
      8 O8           3.5400    -2.4840    -3.3690 os         1 9PA      -0.346900
      9 C9           3.2210    -1.1980    -3.0400 ca         1 9PA       0.025100
     10 C10          3.4720     0.0030    -3.6820 ca         1 9PA      -0.143000
     11 C11          3.0360     1.1970    -3.1320 ca         1 9PA      -0.147000
     12 C12          2.3400     1.2010    -1.9420 ca         1 9PA      -0.079300
     13 C13          1.8700     2.5050    -1.3500 c3         1 9PA      -0.017100
     14 C14          2.9070     3.0140    -0.3470 c3         1 9PA      -0.091700
     15 C15          4.2010     3.3620    -1.0830 c3         1 9PA       0.103000
     16 N16          5.2590     3.6370    -0.1080 ns         1 9PA      -0.560900
     17 C17          6.4500     4.1130    -0.5230 c          1 9PA       0.648100
     18 O18          6.6460     4.3150    -1.7020 o          1 9PA      -0.627100
     19 C19          7.5390     4.3950     0.4810 c3         1 9PA      -0.162400
     20 C20          8.7770     4.9240    -0.2460 c3         1 9PA      -0.057400
     21 C21          9.8830     5.2110     0.7730 c3         1 9PA      -0.116400
     22 C22         11.1210     5.7390     0.0460 c3         1 9PA       0.090800
     23 N23         12.1820     6.0150     1.0240 nz         1 9PA      -0.811600
     24 C24          2.3670     4.2620     0.3550 c3         1 9PA      -0.070400
     25 C25          3.3220     4.6670     1.4800 c3         1 9PA      -0.101700
     26 C26          2.8150     5.9500     2.1430 c3         1 9PA      -0.092600
     27 C27          3.3900     3.5480     2.5210 c3         1 9PA      -0.092600
     28 H7           4.3290    -3.2560    -1.6120 h2         1 9PA       0.055700
     29 H7A          3.0090    -4.2290    -2.3790 h2         1 9PA       0.055700
     30 H10          4.0180     0.0090    -4.6180 ha         1 9PA       0.120000
     31 H11          3.2330     2.1300    -3.6440 ha         1 9PA       0.119000
     32 H13          0.9240     2.3520    -0.8450 hc         1 9PA       0.065700
     33 H13A         1.7430     3.2350    -2.1400 hc         1 9PA       0.065700
     34 H14          3.1060     2.2440     0.3880 hc         1 9PA       0.101700
     35 H15          4.4950     2.5290    -1.7110 h1         1 9PA       0.059700
     36 H15A         4.0410     4.2390    -1.6990 h1         1 9PA       0.059700
     37 HN16         5.1230     3.4030     0.8560 hn         1 9PA       0.333500
     38 H19          7.7910     3.4820     1.0060 hc         1 9PA       0.062700
     39 H19A         7.1930     5.1360     1.1910 hc         1 9PA       0.062700
     40 H20          9.1240     4.1830    -0.9560 hc         1 9PA       0.073200
     41 H20A         8.5250     5.8370    -0.7720 hc         1 9PA       0.073200
     42 H21         10.1340     4.2990     1.3000 hc         1 9PA       0.061700
     43 H21A         9.5360     5.9540     1.4820 hc         1 9PA       0.061700
     44 H22         11.4680     4.9970    -0.6630 hx         1 9PA       0.114200
     45 H22A        10.8700     6.6520    -0.4800 hx         1 9PA       0.114200
     46 HN23        12.9930     6.3570     0.5490 hn         1 9PA       0.454133
     47 HN2A        12.4130     5.1720     1.5120 hn         1 9PA       0.454133
     48 H24          2.2870     5.0720    -0.3600 hc         1 9PA       0.049700
     49 H24A         1.3900     4.0490     0.7700 hc         1 9PA       0.049700
     50 H25          4.3110     4.8390     1.0710 hc         1 9PA       0.040700
     51 H26          3.4730     6.2190     2.9600 hc         1 9PA       0.035533
     52 H26A         1.8140     5.7890     2.5230 hc         1 9PA       0.035533
     53 H26B         2.8000     6.7510     1.4130 hc         1 9PA       0.035533
     54 H27          4.0600     3.8380     3.3210 hc         1 9PA       0.035533
     55 H27A         2.4000     3.3710     2.9250 hc         1 9PA       0.035533
     56 H27B         3.7560     2.6420     2.0530 hc         1 9PA       0.035533
     57 H233        11.8580     6.6920     1.6860 hn         1 9PA       0.454133
@<TRIPOS>BOND
     1     2     1 1
     2     4     2 1
     3     2     3 1
     4     5     4 ar
     5    12     4 ar
     6     9     5 ar
     7     5     6 1
     8     7     6 1
     9     8     7 1
    10     7    28 1
    11     7    29 1
    12     8     9 1
    13    10     9 ar
    14    10    11 ar
    15    10    30 1
    16    11    12 ar
    17    11    31 1
    18    12    13 1
    19    14    13 1
    20    13    32 1
    21    13    33 1
    22    15    14 1
    23    14    24 1
    24    14    34 1
    25    15    16 1
    26    15    35 1
    27    15    36 1
    28    16    17 1
    29    16    37 1
    30    18    17 2
    31    17    19 1
    32    19    20 1
    33    19    38 1
    34    19    39 1
    35    20    21 1
    36    20    40 1
    37    20    41 1
    38    21    22 1
    39    21    42 1
    40    21    43 1
    41    22    23 1
    42    22    44 1
    43    22    45 1
    44    23    46 1
    45    23    47 1
    46    24    25 1
    47    24    48 1
    48    24    49 1
    49    26    25 1
    50    25    27 1
    51    25    50 1
    52    26    51 1
    53    26    52 1
    54    26    53 1
    55    27    54 1
    56    27    55 1
    57    27    56 1
    58    57    23 1
@<TRIPOS>SUBSTRUCTURE
     1 9PA         1 TEMP              0 ****  ****    0 ROOT
