@<TRIPOS>MOLECULE
9PC
   32    34     1     0     0
SMALL
bcc


@<TRIPOS>ATOM
      1 C11          0.0000     0.0000     0.0000 ca         1 9PC      -0.171900
      2 C12          1.3780     0.0000     0.0000 ca         1 9PC       0.002000
      3 N            9.2830     4.8800     5.6300 nz         1 9PC       0.203600
      4 C13          7.4830     2.7460     3.8510 ca         1 9PC       0.137900
      5 C1           8.8110     2.9110     4.2590 ca         1 9PC      -0.274600
      6 C2           9.6060     1.7860     4.5000 ca         1 9PC       0.131900
      7 C3           9.0780     0.5200     4.3340 ca         1 9PC      -0.070000
      8 F1           6.7090     3.8260     3.6100 f          1 9PC      -0.101900
      9 C            9.3700     4.2640     4.4340 c          1 9PC       0.375700
     10 O            9.9090     4.8250     3.5000 o          1 9PC      -0.372100
     11 C5           6.9680     1.4690     3.6880 ca         1 9PC       0.145100
     12 C4           7.7640     0.3610     3.9300 ca         1 9PC      -0.104000
     13 O1           5.6770     1.3040     3.2900 os         1 9PC      -0.272900
     14 C6           5.2100    -0.0380     3.1430 c3         1 9PC       0.217100
     15 C7           3.7690    -0.0240     2.7000 cc         1 9PC       0.334200
     16 S            2.3870    -0.0170     3.7860 ss         1 9PC      -0.274500
     17 C9           1.2880    -0.0000     2.4080 ca         1 9PC       0.463600
     18 N2          -0.0400     0.0120     2.3490 nb         1 9PC      -0.506000
     19 C10         -0.6870     0.0060     1.2060 ca         1 9PC       0.439200
     20 Cl          -0.8730    -0.0010    -1.5010 cl         1 9PC       0.034600
     21 C8           2.0570     0.0000     1.2380 ca         1 9PC      -0.058900
     22 N1           3.3810    -0.0130     1.4800 nd         1 9PC      -0.387100
     23 H1           1.9300    -0.0050    -0.9320 ha         1 9PC       0.133000
     24 H2           8.8770     5.7870     5.5100 hn         1 9PC       0.249800
     25 H3           8.7090     4.3370     6.2440 hn         1 9PC       0.249800
     26 H4           9.6940    -0.3510     4.5210 ha         1 9PC       0.147000
     27 H5           7.3560    -0.6350     3.8020 ha         1 9PC       0.149000
     28 H6           5.8110    -0.5490     2.4010 h1         1 9PC       0.021700
     29 H7           5.2920    -0.5550     4.0910 h1         1 9PC       0.021700
     30 H8          -1.7700     0.0060     1.2050 h4         1 9PC       0.001100
     31 HN3         10.1980     4.9720     6.0250 hn         1 9PC       0.249800
     32 F           10.8900     1.9360     4.8950 f          1 9PC      -0.111900
@<TRIPOS>BOND
     1     1     2 ar  
     2     1    19 ar  
     3     1    20 1   
     4     2    21 ar  
     5     2    23 1   
     6     3     9 1   
     7     3    24 1   
     8     3    25 1   
     9     3    31 1   
    10     4     5 ar  
    11     4     8 1   
    12     4    11 ar  
    13     5     6 ar  
    14     5     9 1   
    15     6     7 ar  
    16     6    32 1   
    17     7    12 ar  
    18     7    26 1   
    19     9    10 2   
    20    11    12 ar  
    21    11    13 1   
    22    12    27 1   
    23    13    14 1   
    24    14    15 1   
    25    14    28 1   
    26    14    29 1   
    27    15    16 1   
    28    15    22 2   
    29    16    17 1   
    30    17    18 ar  
    31    17    21 ar  
    32    18    19 ar  
    33    19    30 1   
    34    21    22 1   
@<TRIPOS>SUBSTRUCTURE
     1 9PC         1 TEMP              0 ****  ****    0 ROOT
