@<TRIPOS>MOLECULE
molecule
   32    34     1     0     0
SMALL
bcc


@<TRIPOS>ATOM
      1 C11          0.0000     0.0000     0.0000 ca         1 9PC      -0.104900
      2 C12          1.3780     0.0000     0.0000 ca         1 9PC      -0.023000
      3 N            9.2830     4.8800     5.6300 nz         1 9PC      -0.680400
      4 C13          7.4830     2.7460     3.8510 ca         1 9PC       0.168900
      5 C1           8.8110     2.9110     4.2590 ca         1 9PC      -0.272600
      6 C2           9.6060     1.7860     4.5000 ca         1 9PC       0.160900
      7 C3           9.0780     0.5200     4.3340 ca         1 9PC      -0.117000
      8 F1           6.7090     3.8260     3.6100 f          1 9PC      -0.104900
      9 C            9.3700     4.2640     4.4340 c          1 9PC       0.526700
     10 O            9.9090     4.8250     3.5000 o          1 9PC      -0.363100
     11 C5           6.9680     1.4690     3.6880 ca         1 9PC       0.124100
     12 C4           7.7640     0.3610     3.9300 ca         1 9PC      -0.124000
     13 O1           5.6770     1.3040     3.2900 os         1 9PC      -0.293900
     14 C6           5.2100    -0.0380     3.1430 c3         1 9PC       0.138100
     15 C7           3.7690    -0.0240     2.7000 cc         1 9PC       0.375200
     16 S            2.3870    -0.0170     3.7860 ss         1 9PC      -0.146500
     17 C9           1.2880    -0.0000     2.4080 ca         1 9PC       0.464600
     18 N2          -0.0400     0.0120     2.3490 nb         1 9PC      -0.645000
     19 C10         -0.6870     0.0060     1.2060 ca         1 9PC       0.469200
     20 Cl          -0.8730    -0.0010    -1.5010 cl         1 9PC      -0.063400
     21 C8           2.0570     0.0000     1.2380 ca         1 9PC      -0.006900
     22 N1           3.3810    -0.0130     1.4800 nd         1 9PC      -0.533100
     23 H1           1.9300    -0.0050    -0.9320 ha         1 9PC       0.173000
     24 H2           8.8770     5.7870     5.5100 hn         1 9PC       0.482133
     25 H3           8.7090     4.3370     6.2440 hn         1 9PC       0.482133
     26 H4           9.6940    -0.3510     4.5210 ha         1 9PC       0.185000
     27 H5           7.3560    -0.6350     3.8020 ha         1 9PC       0.179000
     28 H6           5.8110    -0.5490     2.4010 h1         1 9PC       0.067200
     29 H7           5.2920    -0.5550     4.0910 h1         1 9PC       0.067200
     30 H8          -1.7700     0.0060     1.2050 h4         1 9PC       0.053100
     31 HN3         10.1980     4.9720     6.0250 hn         1 9PC       0.482133
     32 F           10.8900     1.9360     4.8950 f          1 9PC      -0.119900
@<TRIPOS>BOND
     1    10     9 2
     2     9     5 1
     3     9     3 1
     4    32     6 1
     5     5     6 ar
     6     5     4 ar
     7     6     7 ar
     8     8     4 1
     9     4    11 ar
    10     7    12 ar
    11    16    17 1
    12    16    15 1
    13    11    12 ar
    14    11    13 1
    15    18    17 ar
    16    18    19 ar
    17    14    13 1
    18    14    15 1
    19    17    21 ar
    20    15    22 2
    21    19     1 ar
    22    21    22 1
    23    21     2 ar
    24     1     2 ar
    25     1    20 1
    26     2    23 1
    27     3    24 1
    28     3    25 1
    29     7    26 1
    30    12    27 1
    31    14    28 1
    32    14    29 1
    33    19    30 1
    34    31     3 1
@<TRIPOS>SUBSTRUCTURE
     1 9PC         1 TEMP              0 ****  ****    0 ROOT
