@<TRIPOS>MOLECULE
9PE
   99    98     1     0     0
SMALL
bcc


@<TRIPOS>ATOM
      1 P           0.9630    0.4830   -0.7000 p5        1 9PE      1.443800
      2 N          -1.5370   -2.1120   -1.5520 n3        1 9PE     -0.908800
      3 O11         1.5950    0.0190    0.7540 os        1 9PE     -0.559200
      4 O12        -0.5090    0.4860   -0.6060 o         1 9PE     -0.840500
      5 O13         1.3140   -0.9120   -1.5240 os        1 9PE     -0.575200
      6 O14         1.7840    1.5950   -1.2200 o         1 9PE     -0.840500
      7 C11         0.5400   -1.1390   -2.6610 c3        1 9PE      0.158400
      8 C12        -0.4380   -2.3130   -2.4620 c3        1 9PE      0.134800
      9 C1          2.2250    0.9980    1.5100 c3        1 9PE      0.174400
     10 C2          3.7320    0.7480    1.6970 c3        1 9PE      0.114100
     11 C3          4.0750   -0.6840    2.1050 c3        1 9PE      0.154400
     12 O31         4.0830   -1.5190    0.9460 os        1 9PE     -0.407900
     13 O32         3.1180   -3.1620    2.1260 o         1 9PE     -0.579000
     14 C31         3.4270   -2.7170    1.0160 c         1 9PE      0.657100
     15 C32         3.2190   -3.3210   -0.3360 c3        1 9PE     -0.146400
     16 C33         2.9540   -4.8060   -0.2440 c3        1 9PE     -0.073400
     17 C34         2.6030   -5.3730   -1.6030 c3        1 9PE     -0.080400
     18 C35         2.3520   -6.8640   -1.5260 c3        1 9PE     -0.077400
     19 C36         1.9930   -7.4330   -2.8820 c3        1 9PE     -0.081400
     20 C37         1.7440   -8.9180   -2.8120 c3        1 9PE     -0.090100
     21 O21         4.4420    1.0140    0.4790 os        1 9PE     -0.419900
     22 O22         4.4880    3.1990    0.9730 o         1 9PE     -0.587000
     23 C21         4.5570    2.3270    0.1000 c         1 9PE      0.669100
     24 C22         4.7600    2.4750   -1.3710 c3        1 9PE     -0.153400
     25 C23         5.4370    3.7810   -1.7180 c3        1 9PE     -0.070400
     26 C24         5.4580    3.9900   -3.2180 c3        1 9PE     -0.079400
     27 C25         6.1380    5.2930   -3.5790 c3        1 9PE     -0.078400
     28 C26         6.1560    5.5060   -5.0780 c3        1 9PE     -0.079400
     29 C27         6.8350    6.8090   -5.4410 c3        1 9PE     -0.078400
     30 C28         6.8520    7.0220   -6.9390 c3        1 9PE     -0.079400
     31 C29         7.5310    8.3250   -7.3030 c3        1 9PE     -0.078400
     32 C2A         7.5470    8.5380   -8.8010 c3        1 9PE     -0.079400
     33 C2B         8.2270    9.8410   -9.1650 c3        1 9PE     -0.078400
     34 C2C         8.2420   10.0540  -10.6630 c3        1 9PE     -0.079400
     35 C2D         8.9220   11.3560  -11.0270 c3        1 9PE     -0.078400
     36 C2E         8.9370   11.5700  -12.5250 c3        1 9PE     -0.079400
     37 C2F         9.6170   12.8720  -12.8880 c3        1 9PE     -0.079400
     38 C2G         9.6330   13.0850  -14.3870 c3        1 9PE     -0.079400
     39 C2H        10.3120   14.3880  -14.7520 c3        1 9PE     -0.080400
     40 C2I        10.3300   14.6040  -16.2430 c3        1 9PE     -0.092100
     41 HN         -1.2080   -2.1440   -0.6040 hn        1 9PE      0.360800
     42 HNA        -1.9330   -1.1960   -1.6870 hn        1 9PE      0.360800
     43 H11         1.2400   -1.4090   -3.5030 h1        1 9PE      0.017700
     44 H11A       -0.0280   -0.2080   -2.9420 h1        1 9PE      0.017700
     45 H12        -0.8760   -2.5530   -3.4730 h1        1 9PE      0.027200
     46 H12A        0.1570   -3.2060   -2.1190 h1        1 9PE      0.027200
     47 H1          2.0980    2.0140    1.0360 h1        1 9PE      0.038700
     48 H1A         1.7600    0.9930    2.5380 h1        1 9PE      0.038700
     49 H2          4.1040    1.4450    2.5010 h1        1 9PE      0.054700
     50 H3          3.3260   -1.0390    2.8600 h1        1 9PE      0.053700
     51 H3A         5.1140   -0.7300    2.5260 h1        1 9PE      0.053700
     52 H32         4.1160   -3.1120   -0.9760 hc        1 9PE      0.104200
     53 H32A        2.3440   -2.7790   -0.8050 hc        1 9PE      0.104200
     54 H33         3.8580   -5.3290    0.1640 hc        1 9PE      0.046700
     55 H33A        2.1140   -4.9910    0.4770 hc        1 9PE      0.046700
     56 H34         3.4370   -5.1680   -2.3250 hc        1 9PE      0.044200
     57 H34A        1.6880   -4.8560   -1.9990 hc        1 9PE      0.044200
     58 H35         3.2660   -7.3810   -1.1310 hc        1 9PE      0.037200
     59 H35A        1.5190   -7.0670   -0.8010 hc        1 9PE      0.037200
     60 H36         2.8240   -7.2240   -3.6070 hc        1 9PE      0.039200
     61 H36A        1.0770   -6.9150   -3.2720 hc        1 9PE      0.039200
     62 H37         0.9020   -9.1430   -2.1130 hc        1 9PE      0.027700
     63 H37A        2.6530   -9.4540   -2.4470 hc        1 9PE      0.027700
     64 H37B        1.4810   -9.3160   -3.8210 hc        1 9PE      0.027700
     65 H22         3.7190    2.4160   -1.8200 hc        1 9PE      0.114700
     66 H22A        5.3450    1.6020   -1.7620 hc        1 9PE      0.114700
     67 H23         6.4860    3.7870   -1.3200 hc        1 9PE      0.043700
     68 H23A        4.8900    4.6260   -1.2210 hc        1 9PE      0.043700
     69 H24         4.4060    3.9910   -3.6080 hc        1 9PE      0.044200
     70 H24A        5.9930    3.1360   -3.7100 hc        1 9PE      0.044200
     71 H25         5.6030    6.1450   -3.0840 hc        1 9PE      0.036700
     72 H25A        7.1900    5.2900   -3.1880 hc        1 9PE      0.036700
     73 H26         6.6890    4.6520   -5.5730 hc        1 9PE      0.039700
     74 H26A        5.1040    5.5090   -5.4680 hc        1 9PE      0.039700
     75 H27         6.3010    7.6620   -4.9460 hc        1 9PE      0.037200
     76 H27A        7.8870    6.8060   -5.0500 hc        1 9PE      0.037200
     77 H28         5.8000    7.0250   -7.3300 hc        1 9PE      0.039200
     78 H28A        7.3850    6.1680   -7.4350 hc        1 9PE      0.039200
     79 H29         6.9980    9.1780   -6.8070 hc        1 9PE      0.038200
     80 H29A        8.5830    8.3220   -6.9120 hc        1 9PE      0.038200
     81 H2A         8.0800    7.6840   -9.2970 hc        1 9PE      0.039200
     82 H2AA        6.4950    8.5410   -9.1910 hc        1 9PE      0.039200
     83 H2B         9.2790    9.8380   -8.7740 hc        1 9PE      0.038200
     84 H2BA        7.6930   10.6940   -8.6690 hc        1 9PE      0.038200
     85 H2C         8.7750    9.2000  -11.1590 hc        1 9PE      0.039200
     86 H2CA        7.1900   10.0570  -11.0530 hc        1 9PE      0.039200
     87 H2D         9.9740   11.3530  -10.6360 hc        1 9PE      0.038700
     88 H2DA        8.3890   12.2100  -10.5300 hc        1 9PE      0.038700
     89 H2E         7.8850   11.5730  -12.9150 hc        1 9PE      0.039200
     90 H2EA        9.4700   10.7160  -13.0210 hc        1 9PE      0.039200
     91 H2F         9.0840   13.7260  -12.3920 hc        1 9PE      0.038700
     92 H2FA       10.6690   12.8690  -12.4980 hc        1 9PE      0.038700
     93 H2G         8.5810   13.0890  -14.7770 hc        1 9PE      0.039200
     94 H2GA       10.1660   12.2320  -14.8830 hc        1 9PE      0.039200
     95 H2H         9.7790   15.2400  -14.2530 hc        1 9PE      0.037700
     96 H2HA       11.3640   14.3830  -14.3590 hc        1 9PE      0.037700
     97 H2I         9.2900   14.6370  -16.6480 hc        1 9PE      0.031367
     98 H2IA       10.8790   13.7780  -16.7550 hc        1 9PE      0.031367
     99 H2IB       10.8350   15.5690  -16.4890 hc        1 9PE      0.031367
@<TRIPOS>BOND
     1    1    3 1   
     2    1    4 1   
     3    1    5 1   
     4    1    6 1   
     5    2    8 1   
     6    2   41 1   
     7    2   42 1   
     8    3    9 1   
     9    5    7 1   
    10    7    8 1   
    11    7   43 1   
    12    7   44 1   
    13    8   45 1   
    14    8   46 1   
    15    9   10 1   
    16    9   47 1   
    17    9   48 1   
    18   10   11 1   
    19   10   21 1   
    20   10   49 1   
    21   11   12 1   
    22   11   50 1   
    23   11   51 1   
    24   12   14 1   
    25   13   14 2   
    26   14   15 1   
    27   15   16 1   
    28   15   52 1   
    29   15   53 1   
    30   16   17 1   
    31   16   54 1   
    32   16   55 1   
    33   17   18 1   
    34   17   56 1   
    35   17   57 1   
    36   18   19 1   
    37   18   58 1   
    38   18   59 1   
    39   19   20 1   
    40   19   60 1   
    41   19   61 1   
    42   20   62 1   
    43   20   63 1   
    44   20   64 1   
    45   21   23 1   
    46   22   23 2   
    47   23   24 1   
    48   24   25 1   
    49   24   65 1   
    50   24   66 1   
    51   25   26 1   
    52   25   67 1   
    53   25   68 1   
    54   26   27 1   
    55   26   69 1   
    56   26   70 1   
    57   27   28 1   
    58   27   71 1   
    59   27   72 1   
    60   28   29 1   
    61   28   73 1   
    62   28   74 1   
    63   29   30 1   
    64   29   75 1   
    65   29   76 1   
    66   30   31 1   
    67   30   77 1   
    68   30   78 1   
    69   31   32 1   
    70   31   79 1   
    71   31   80 1   
    72   32   33 1   
    73   32   81 1   
    74   32   82 1   
    75   33   34 1   
    76   33   83 1   
    77   33   84 1   
    78   34   35 1   
    79   34   85 1   
    80   34   86 1   
    81   35   36 1   
    82   35   87 1   
    83   35   88 1   
    84   36   37 1   
    85   36   89 1   
    86   36   90 1   
    87   37   38 1   
    88   37   91 1   
    89   37   92 1   
    90   38   39 1   
    91   38   93 1   
    92   38   94 1   
    93   39   40 1   
    94   39   95 1   
    95   39   96 1   
    96   40   97 1   
    97   40   98 1   
    98   40   99 1   
@<TRIPOS>SUBSTRUCTURE
     1 9PE         1 TEMP              0 ****  ****    0 ROOT
