@<TRIPOS>MOLECULE
molecule
   36    37     1     0     0
SMALL
bcc


@<TRIPOS>ATOM
      1 C6           0.0000     0.0000     0.0000 c3         1 9PG       0.149400
      2 C5           1.5300     0.0000     0.0000 c3         1 9PG       0.142100
      3 C4           2.0410     0.0000     1.4440 c3         1 9PG       0.100100
      4 C3           3.5710     0.0610     1.4360 c3         1 9PG       0.132100
      5 C2           4.0180     1.3040     0.6620 c3         1 9PG       0.133100
      6 C1           3.4310     1.2530    -0.7520 c3         1 9PG       0.315900
      7 O8           2.2560     0.6410    -7.4890 o          1 9PG      -0.212500
      8 O7           3.3010    -1.1900    -7.5730 o          1 9PG      -0.212500
      9 C9           3.1700    -0.1450    -5.4830 ca         1 9PG      -0.195200
     10 C14          3.8920    -1.1420    -4.8550 ca         1 9PG      -0.035000
     11 C13          4.1520    -1.0600    -3.5000 ca         1 9PG      -0.189000
     12 C12          3.6860     0.0250    -2.7710 ca         1 9PG       0.183100
     13 C11          2.9630     1.0240    -3.4040 ca         1 9PG      -0.189000
     14 C10          2.7100     0.9390    -4.7600 ca         1 9PG      -0.035000
     15 O1           3.9400     0.1090    -1.4390 os         1 9PG      -0.336900
     16 O2           5.4450     1.3320     0.5860 oh         1 9PG      -0.587800
     17 O3           4.0530     0.1350     2.7790 oh         1 9PG      -0.592800
     18 O4           1.5210     1.1380     2.1340 oh         1 9PG      -0.585800
     19 O5           2.0070     1.1670    -0.6730 os         1 9PG      -0.402600
     20 O6          -0.4760    -0.1160    -1.3420 oh         1 9PG      -0.600800
     21 H1          -0.3610     0.9250     0.4320 h1         1 9PG       0.037200
     22 H2          -0.3610    -0.8370     0.5850 h1         1 9PG       0.037200
     23 H3           1.8950    -0.8830    -0.5100 h1         1 9PG       0.067700
     24 H4           1.7190    -0.9080     1.9390 h1         1 9PG       0.045700
     25 H5           3.9650    -0.8260     0.9530 h1         1 9PG       0.063700
     26 H6           3.6600     2.1920     1.1690 h1         1 9PG       0.088700
     27 H7           3.7070     2.1540    -1.2880 h2         1 9PG       0.090700
     28 H9           4.7180    -1.8420    -3.0080 ha         1 9PG       0.160500
     29 H10          2.6000     1.8740    -2.8380 ha         1 9PG       0.160500
     30 H11          2.1450     1.7200    -5.2560 ha         1 9PG       0.167000
     31 H12          5.7530     2.2020     0.7770 ho         1 9PG       0.410000
     32 H13          4.4760    -0.6760     3.0070 ho         1 9PG       0.408000
     33 H14          1.1160     0.8600     2.9390 ho         1 9PG       0.408000
     34 H15         -1.4110    -0.2380    -1.3350 ho         1 9PG       0.406000
     35 H8           4.2550    -1.9890    -5.4250 ha         1 9PG       0.167000
     36 N            2.8930    -0.2370    -6.9350 no         1 9PG       0.299200
@<TRIPOS>BOND
     1    17     4 1
     2    16     5 1
     3     4     5 1
     4     4     3 1
     5     5     6 1
     6     3    18 1
     7     3     2 1
     8    15     6 1
     9    15    12 1
    10     6    19 1
    11    13    12 ar
    12    13    14 ar
    13     2    19 1
    14     2     1 1
    15    12    11 ar
    16    14     9 ar
    17    11    10 ar
    18    20     1 1
    19     9    10 ar
    20     9    36 1
    21    36     8 1
    22    36     7 1
    23     1    21 1
    24     1    22 1
    25     2    23 1
    26     3    24 1
    27     4    25 1
    28     5    26 1
    29     6    27 1
    30    10    35 1
    31    11    28 1
    32    13    29 1
    33    14    30 1
    34    16    31 1
    35    17    32 1
    36    18    33 1
    37    20    34 1
@<TRIPOS>SUBSTRUCTURE
     1 9PG         1 TEMP              0 ****  ****    0 ROOT
