@<TRIPOS>MOLECULE
9PG
   36    37     1     0     0
SMALL
bcc


@<TRIPOS>ATOM
      1 C6           0.0000     0.0000     0.0000 c3         1 9PG       0.224400
      2 C5           1.5300     0.0000     0.0000 c3         1 9PG       0.161100
      3 C4           2.0410     0.0000     1.4440 c3         1 9PG       0.139100
      4 C3           3.5710     0.0610     1.4360 c3         1 9PG       0.163100
      5 C2           4.0180     1.3040     0.6620 c3         1 9PG       0.154100
      6 C1           3.4310     1.2530    -0.7520 c3         1 9PG       0.360900
      7 O8           2.2560     0.6410    -7.4890 o          1 9PG      -0.457000
      8 O7           3.3010    -1.1900    -7.5730 o          1 9PG      -0.457000
      9 C9           3.1700    -0.1450    -5.4830 ca         1 9PG      -0.497200
     10 C14          3.8920    -1.1420    -4.8550 ca         1 9PG       0.030500
     11 C13          4.1520    -1.0600    -3.5000 ca         1 9PG      -0.190500
     12 C12          3.6860     0.0250    -2.7710 ca         1 9PG       0.212100
     13 C11          2.9630     1.0240    -3.4040 ca         1 9PG      -0.190500
     14 C10          2.7100     0.9390    -4.7600 ca         1 9PG       0.030500
     15 O1           3.9400     0.1090    -1.4390 os         1 9PG      -0.314900
     16 O2           5.4450     1.3320     0.5860 oh         1 9PG      -0.570800
     17 O3           4.0530     0.1350     2.7790 oh         1 9PG      -0.572800
     18 O4           1.5210     1.1380     2.1340 oh         1 9PG      -0.565800
     19 O5           2.0070     1.1670    -0.6730 os         1 9PG      -0.392600
     20 O6          -0.4760    -0.1160    -1.3420 oh         1 9PG      -0.584800
     21 H1          -0.3610     0.9250     0.4320 h1         1 9PG      -0.001300
     22 H2          -0.3610    -0.8370     0.5850 h1         1 9PG      -0.001300
     23 H3           1.8950    -0.8830    -0.5100 h1         1 9PG       0.033700
     24 H4           1.7190    -0.9080     1.9390 h1         1 9PG       0.010700
     25 H5           3.9650    -0.8260     0.9530 h1         1 9PG       0.026700
     26 H6           3.6600     2.1920     1.1690 h1         1 9PG       0.047700
     27 H7           3.7070     2.1540    -1.2880 h2         1 9PG       0.041700
     28 H9           4.7180    -1.8420    -3.0080 ha         1 9PG       0.134500
     29 H10          2.6000     1.8740    -2.8380 ha         1 9PG       0.134500
     30 H11          2.1450     1.7200    -5.2560 ha         1 9PG       0.130000
     31 H12          5.7530     2.2020     0.7770 ho         1 9PG       0.395000
     32 H13          4.4760    -0.6760     3.0070 ho         1 9PG       0.393000
     33 H14          1.1160     0.8600     2.9390 ho         1 9PG       0.393000
     34 H15         -1.4110    -0.2380    -1.3350 ho         1 9PG       0.392000
     35 H8           4.2550    -1.9890    -5.4250 ha         1 9PG       0.130000
     36 N            2.8930    -0.2370    -6.9350 no         1 9PG       1.057200
@<TRIPOS>BOND
     1     1     2 1   
     2     1    20 1   
     3     1    21 1   
     4     1    22 1   
     5     2     3 1   
     6     2    19 1   
     7     2    23 1   
     8     3     4 1   
     9     3    18 1   
    10     3    24 1   
    11     4     5 1   
    12     4    17 1   
    13     4    25 1   
    14     5     6 1   
    15     5    16 1   
    16     5    26 1   
    17     6    15 1   
    18     6    19 1   
    19     6    27 1   
    20     7    36 1   
    21     8    36 1   
    22     9    10 ar  
    23     9    14 ar  
    24     9    36 1   
    25    10    11 ar  
    26    10    35 1   
    27    11    12 ar  
    28    11    28 1   
    29    12    13 ar  
    30    12    15 1   
    31    13    14 ar  
    32    13    29 1   
    33    14    30 1   
    34    16    31 1   
    35    17    32 1   
    36    18    33 1   
    37    20    34 1   
@<TRIPOS>SUBSTRUCTURE
     1 9PG         1 TEMP              0 ****  ****    0 ROOT
