@<TRIPOS>MOLECULE
molecule
   37    36     1     0     0
SMALL
bcc


@<TRIPOS>ATOM
      1 O01          7.0750    -1.2940     1.2510 o          1 9PI      -0.924500
      2 P02          6.7550    -1.3310    -0.1930 p5         1 9PI       1.566800
      3 O03          6.2170    -2.7960    -0.5870 os         1 9PI      -0.737800
      4 P04          6.6400    -4.2920    -0.1670 p5         1 9PI       1.370400
      5 O05          6.8400    -4.3560     1.2980 o          1 9PI      -0.992500
      6 O06          5.4750    -5.3180    -0.5950 o          1 9PI      -0.992500
      7 O07          8.0080    -4.6930    -0.9140 o          1 9PI      -0.992500
      8 O08          5.6190    -0.2370    -0.5190 os         1 9PI      -0.745800
      9 P09          5.3940     1.3010    -0.0990 p5         1 9PI       1.570800
     10 O10          6.3120     2.2490    -1.0220 o          1 9PI      -0.914500
     11 O11          3.8460     1.6920    -0.3020 os         1 9PI      -0.745800
     12 P12          2.9260     2.9150     0.1970 p5         1 9PI       1.575300
     13 O13          3.1820     4.1980    -0.7420 o          1 9PI      -0.914750
     14 O14          1.3760     2.4900     0.1140 os         1 9PI      -0.744800
     15 P15          0.0150     3.0960     0.7260 p5         1 9PI       1.572800
     16 O16          0.0040     4.5650     0.5420 o          1 9PI      -0.909500
     17 O17         -1.2490     2.4510    -0.0340 os         1 9PI      -0.744800
     18 P18         -2.7900     2.8840    -0.2080 p5         1 9PI       1.575300
     19 O19         -2.9050     4.0050    -1.3580 o          1 9PI      -0.914750
     20 O20         -3.6650     1.5980    -0.6230 os         1 9PI      -0.745800
     21 P21         -5.2430     1.2800    -0.6480 p5         1 9PI       1.570800
     22 O22         -5.8990     1.9230    -1.9700 o          1 9PI      -0.914500
     23 O23         -5.4700    -0.3140    -0.6580 os         1 9PI      -0.745800
     24 P24         -6.7390    -1.2650    -0.3820 p5         1 9PI       1.566800
     25 O25         -6.2290    -2.7530    -0.0350 os         1 9PI      -0.737800
     26 P26         -6.9260    -4.0500     0.6150 p5         1 9PI       1.370400
     27 O27         -5.7910    -5.0450     1.1750 o          1 9PI      -0.992500
     28 O28         -7.8070    -3.6320     1.7280 o          1 9PI      -0.992500
     29 O29         -7.7990    -4.8090    -0.5050 o          1 9PI      -0.992500
     30 O30         -7.5160    -0.7320     0.7600 o          1 9PI      -0.924500
     31 O31         -7.6720    -1.3090    -1.6930 o          1 9PI      -0.924500
     32 O32         -5.8830     1.8610     0.5530 o          1 9PI      -0.914500
     33 O33         -3.2950     3.4330     1.0700 o          1 9PI      -0.914750
     34 O34         -0.0680     2.7510     2.2960 o          1 9PI      -0.909500
     35 O35          3.2710     3.2520     1.5970 o          1 9PI      -0.914750
     36 O36          5.7670     1.4840     1.3210 o          1 9PI      -0.914500
     37 O37          8.0800    -0.9980    -1.0450 o          1 9PI      -0.924500
@<TRIPOS>BOND
     1     5     4 1
     2     4     3 1
     3     4     7 1
     4     4     6 1
     5     3     2 1
     6     8     2 1
     7     8     9 1
     8     2     1 1
     9     2    37 1
    10    36     9 1
    11     9    10 1
    12     9    11 1
    13    16    15 1
    14    11    12 1
    15    30    24 1
    16    23    24 1
    17    23    21 1
    18    32    21 1
    19    28    26 1
    20    15    17 1
    21    15    34 1
    22    15    14 1
    23    35    12 1
    24    12    14 1
    25    12    13 1
    26    24    31 1
    27    24    25 1
    28    17    18 1
    29    21    20 1
    30    21    22 1
    31    20    18 1
    32    25    26 1
    33    26    29 1
    34    26    27 1
    35    18    33 1
    36    18    19 1
@<TRIPOS>SUBSTRUCTURE
     1 9PI         1 TEMP              0 ****  ****    0 ROOT
