@<TRIPOS>MOLECULE
molecule
   31    32     1     0     0
SMALL
bcc


@<TRIPOS>ATOM
      1 N1           0.0000     0.0000     0.0000 na         1 9PL      -0.185900
      2 C2           1.3510     0.0000     0.0000 cc         1 9PL       0.399400
      3 N3           1.7700     0.0000     1.2360 nd         1 9PL      -0.693000
      4 C4           0.7120     0.0010     2.0620 cd         1 9PL       0.314200
      5 C5          -0.4040     0.0080     1.3080 cc         1 9PL      -0.245900
      6 C6          -0.8690    -0.0010    -1.1780 c3         1 9PL       0.031600
      7 C7          -1.8250     0.0100     1.8080 c3         1 9PL       0.005900
      8 C8          -2.2810    -1.4280     2.0590 c3         1 9PL      -0.107700
      9 C9          -1.4790    -2.0660     3.2160 c3         1 9PL       0.133400
     10 O10         -2.2670    -1.7780     4.4080 os         1 9PL      -0.402900
     11 C11         -3.5690    -1.7210     4.0920 c          1 9PL       0.736600
     12 C12         -3.7270    -1.4600     2.6040 c3         1 9PL      -0.188700
     13 C13         -4.4160    -0.1150     2.3680 c3         1 9PL      -0.068400
     14 C14         -5.8570    -0.1840     2.8790 c3         1 9PL      -0.094100
     15 O15         -4.4810    -1.8560     4.8730 o          1 9PL      -0.562500
     16 H2           1.9820    -0.0030    -0.8800 h5         1 9PL       0.065100
     17 H4           0.7490     0.0030     3.1440 h4         1 9PL       0.044100
     18 H6          -1.5100     0.8720    -1.1550 h1         1 9PL       0.053700
     19 H6A         -0.2610     0.0210    -2.0750 h1         1 9PL       0.053700
     20 H6B         -1.4780    -0.8960    -1.1770 h1         1 9PL       0.053700
     21 H7          -1.8820     0.5730     2.7320 hc         1 9PL       0.063200
     22 H7A         -2.4680     0.4690     1.0670 hc         1 9PL       0.063200
     23 H8          -2.1980    -2.0280     1.1610 hc         1 9PL       0.070700
     24 H9          -1.3940    -3.1360     3.0700 h1         1 9PL       0.074700
     25 H9A         -0.5000    -1.6090     3.2930 h1         1 9PL       0.074700
     26 H12         -4.2850    -2.2640     2.1390 hc         1 9PL       0.086700
     27 H13         -4.4200     0.1080     1.3080 hc         1 9PL       0.047200
     28 H13A        -3.8820     0.6630     2.8990 hc         1 9PL       0.047200
     29 H14         -5.8790     0.0750     3.9310 hc         1 9PL       0.043033
     30 H14A        -6.4710     0.5130     2.3220 hc         1 9PL       0.043033
     31 H14B        -6.2390    -1.1890     2.7460 hc         1 9PL       0.043033
@<TRIPOS>BOND
     1     5     1 1
     2     1     2 1
     3     1     6 1
     4     3     2 2
     5     2    16 1
     6     4     3 1
     7     4     5 2
     8     4    17 1
     9     7     5 1
    10     6    18 1
    11     6    19 1
    12     6    20 1
    13     8     7 1
    14     7    21 1
    15     7    22 1
    16    12     8 1
    17     9     8 1
    18     8    23 1
    19    10     9 1
    20     9    24 1
    21     9    25 1
    22    11    10 1
    23    15    11 2
    24    11    12 1
    25    13    12 1
    26    12    26 1
    27    14    13 1
    28    13    27 1
    29    13    28 1
    30    14    29 1
    31    14    30 1
    32    14    31 1
@<TRIPOS>SUBSTRUCTURE
     1 9PL         1 TEMP              0 ****  ****    0 ROOT
