@<TRIPOS>MOLECULE
9PL
   31    32     1     0     0
SMALL
bcc


@<TRIPOS>ATOM
      1 N1          0.0560   -0.2340    0.0090 na        1 9PL     -0.201900
      2 C2          1.4510   -0.0860    0.0110 cc        1 9PL      0.392400
      3 N3          1.9020    0.3580    1.2040 nd        1 9PL     -0.662000
      4 C4          0.7740    0.5030    2.0050 cd        1 9PL      0.301200
      5 C5         -0.3880    0.1400    1.2890 cc        1 9PL     -0.227900
      6 C6         -0.7430   -0.6950   -1.0750 c3        1 9PL      0.022600
      7 C7         -1.7920    0.1670    1.7400 c3        1 9PL      0.004900
      8 C8         -2.3490   -1.2250    1.9820 c3        1 9PL     -0.094700
      9 C9         -1.5350   -1.9860    3.0430 c3        1 9PL      0.122400
     10 O10        -2.4410   -2.4760    4.0460 os        1 9PL     -0.407900
     11 C11        -3.7300   -2.0790    3.7580 c         1 9PL      0.714600
     12 C12        -3.8030   -1.2590    2.4860 c3        1 9PL     -0.148700
     13 C13        -4.4470    0.0920    2.7310 c3        1 9PL     -0.065400
     14 C14        -5.9170   -0.0360    3.0450 c3        1 9PL     -0.107100
     15 O15        -4.5920   -2.4560    4.5430 o         1 9PL     -0.566500
     16 H2          2.0670   -0.3090   -0.8660 h5        1 9PL      0.062100
     17 H4          0.8440    0.8560    3.0340 h4        1 9PL      0.044100
     18 H6         -0.9500   -1.7950   -0.9700 h1        1 9PL      0.053700
     19 H6A        -1.7220   -0.1440   -1.0910 h1        1 9PL      0.053700
     20 H6B        -0.2040   -0.5180   -2.0440 h1        1 9PL      0.053700
     21 H7         -1.8410    0.7670    2.6900 hc        1 9PL      0.063700
     22 H7A        -2.4270    0.6910    0.9730 hc        1 9PL      0.063700
     23 H8         -2.2960   -1.7920    1.0120 hc        1 9PL      0.060700
     24 H9         -1.0190   -2.8820    2.6170 h1        1 9PL      0.070200
     25 H9A        -0.7950   -1.3270    3.5660 h1        1 9PL      0.070200
     26 H12        -4.4380   -1.8290    1.7520 hc        1 9PL      0.088700
     27 H13        -4.3240    0.7280    1.8150 hc        1 9PL      0.049200
     28 H13A       -3.9250    0.6130    3.5770 hc        1 9PL      0.049200
     29 H14        -6.4710   -0.4670    2.1760 hc        1 9PL      0.047033
     30 H14A       -6.3460    0.9690    3.2750 hc        1 9PL      0.047033
     31 H14B       -6.0760   -0.7030    3.9290 hc        1 9PL      0.047033
@<TRIPOS>BOND
     1    1    2 1   
     2    1    5 1   
     3    1    6 1   
     4    2    3 2   
     5    2   16 1   
     6    3    4 1   
     7    4    5 2   
     8    4   17 1   
     9    5    7 1   
    10    6   18 1   
    11    6   19 1   
    12    6   20 1   
    13    7    8 1   
    14    7   21 1   
    15    7   22 1   
    16    8    9 1   
    17    8   12 1   
    18    8   23 1   
    19    9   10 1   
    20    9   24 1   
    21    9   25 1   
    22   10   11 1   
    23   11   12 1   
    24   11   15 2   
    25   12   13 1   
    26   12   26 1   
    27   13   14 1   
    28   13   27 1   
    29   13   28 1   
    30   14   29 1   
    31   14   30 1   
    32   14   31 1   
@<TRIPOS>SUBSTRUCTURE
     1 9PL         1 TEMP              0 ****  ****    0 ROOT
