@<TRIPOS>MOLECULE
9PM
   41    43     1     0     0
SMALL
bcc


@<TRIPOS>ATOM
      1 N28         -1.3070     0.0180    -2.2100 n1         1 9PM      -0.367800
      2 C27         -0.7200     0.0060    -1.2380 cg         1 9PM       0.226800
      3 C24          0.0000     0.0000     0.0000 ca         1 9PM       0.028000
      4 C23          1.3970     0.0000     0.0000 ca         1 9PM      -0.016600
      5 Cl2          2.2670     0.0010    -1.5030 cl         1 9PM       0.003600
      6 C22          2.0850     0.0000     1.1970 ca         1 9PM      -0.100000
      7 C25         -0.6920    -0.0000     1.2140 ca         1 9PM      -0.059000
      8 C26          0.0090    -0.0060     2.4020 ca         1 9PM      -0.099000
      9 C21          1.3930    -0.0000     2.3950 ca         1 9PM      -0.058300
     10 C14          2.1490    -0.0010     3.6980 c3         1 9PM       0.024900
     11 C13          2.4060     1.4420     4.1390 c3         1 9PM       0.144800
     12 N12          3.1440     1.4410     5.4100 n7         1 9PM      -0.581200
     13 C11          3.4080     2.8120     5.8660 c3         1 9PM       0.198100
     14 C08          4.1640     2.7720     7.1690 ca         1 9PM      -0.070300
     15 C09          5.5260     2.7530     7.1530 ca         1 9PM      -0.166300
     16 C07          3.4600     2.7580     8.3700 ca         1 9PM      -0.107000
     17 C06          4.1160     2.7280     9.5630 ca         1 9PM      -0.061000
     18 C05          5.5190     2.7090     9.5850 ca         1 9PM      -0.205300
     19 C04          6.2320     2.6760    10.8000 ca         1 9PM      -0.007000
     20 C03          7.5930     2.6590    10.7500 ca         1 9PM      -0.279300
     21 C02          8.2470     2.6730     9.5090 ca         1 9PM       0.516200
     22 N02          9.6330     2.6540     9.4740 nv         1 9PM      -0.527500
     23 N01          7.5750     2.7030     8.3770 nb         1 9PM      -0.671000
     24 C10          6.2370     2.7160     8.3640 ca         1 9PM       0.436600
     25 H1           3.1680    -0.0000     1.2000 ha         1 9PM       0.123000
     26 H2          -1.7750    -0.0280     1.2200 ha         1 9PM       0.117000
     27 H3          -0.5240    -0.0060     3.3450 ha         1 9PM       0.117000
     28 H4           1.5750    -0.5310     4.4480 hc         1 9PM       0.028200
     29 H5           3.1050    -0.4920     3.5610 hc         1 9PM       0.028200
     30 H6           1.4600     1.9520     4.2740 h1         1 9PM       0.009700
     31 H7           2.9870     1.9530     3.3810 h1         1 9PM       0.009700
     32 H8           4.0230     0.9790     5.2850 hn         1 9PM       0.256800
     33 H10          2.4690     3.3320     6.0100 h1         1 9PM       0.011200
     34 H11          3.9990     3.3330     5.1220 h1         1 9PM       0.011200
     35 H12          6.0570     2.7970     6.2090 ha         1 9PM       0.116000
     36 H13          2.3780     2.7940     8.3630 ha         1 9PM       0.108000
     37 H14          3.5540     2.7180    10.4890 ha         1 9PM       0.103000
     38 H15          5.6970     2.6660    11.7420 ha         1 9PM       0.107000
     39 H16          8.1690     2.6600    11.6680 ha         1 9PM       0.113000
     40 H17         10.1550     2.6480    10.3280 hn         1 9PM       0.270300
     41 H18         10.1110     2.6520     8.5950 hn         1 9PM       0.270300
@<TRIPOS>BOND
     1     1     2 3   
     2     2     3 1   
     3     3     4 ar  
     4     3     7 ar  
     5     4     5 1   
     6     4     6 ar  
     7     6     9 ar  
     8     6    25 1   
     9     7     8 ar  
    10     7    26 1   
    11     8     9 ar  
    12     8    27 1   
    13     9    10 1   
    14    10    11 1   
    15    10    28 1   
    16    10    29 1   
    17    11    12 1   
    18    11    30 1   
    19    11    31 1   
    20    12    13 1   
    21    12    32 1   
    22    13    14 1   
    23    13    33 1   
    24    13    34 1   
    25    14    15 ar  
    26    14    16 ar  
    27    15    24 ar  
    28    15    35 1   
    29    16    17 ar  
    30    16    36 1   
    31    17    18 ar  
    32    17    37 1   
    33    18    19 ar  
    34    18    24 ar  
    35    19    20 ar  
    36    19    38 1   
    37    20    21 ar  
    38    20    39 1   
    39    21    22 1   
    40    21    23 ar  
    41    22    40 1   
    42    22    41 1   
    43    23    24 ar  
@<TRIPOS>SUBSTRUCTURE
     1 9PM         1 TEMP              0 ****  ****    0 ROOT
