@<TRIPOS>MOLECULE
molecule
   12    12     1     0     0
SMALL
bcc


@<TRIPOS>ATOM
      1 C4           0.0000     0.0000     0.0000 ca         1 9PO      -0.143000
      2 C5           1.3870     0.0000     0.0000 ca         1 9PO      -0.116000
      3 C1           1.3060     0.0000     2.3860 ca         1 9PO      -0.098300
      4 N2          -0.0130     0.0000     2.3480 na         1 9PO       0.131600
      5 O8          -0.7380    -0.0000     3.5650 o          1 9PO      -0.379000
      6 C3          -0.6750     0.0000     1.2060 ca         1 9PO      -0.098300
      7 C6           2.0460     0.0000     1.2200 ca         1 9PO      -0.143000
      8 H4          -0.5480     0.0000    -0.9340 ha         1 9PO       0.157000
      9 H5           1.9410    -0.0000    -0.9310 ha         1 9PO       0.149000
     10 H3          -1.7580    -0.0000     1.2130 h4         1 9PO       0.191000
     11 H6           3.1290     0.0000     1.2570 ha         1 9PO       0.157000
     12 H1           1.8150    -0.0000     3.3430 h4         1 9PO       0.191000
@<TRIPOS>BOND
     1     1     2 ar
     2     1     6 ar
     3     2     7 ar
     4     7     3 ar
     5     4     5 1
     6     4     6 1
     7     4     3 2
     8     1     8 1
     9     2     9 1
    10     6    10 1
    11     7    11 1
    12     3    12 1
@<TRIPOS>SUBSTRUCTURE
     1 9PO         1 TEMP              0 ****  ****    0 ROOT
