@<TRIPOS>MOLECULE
9PO
   12    12     1     0     0
SMALL
bcc


@<TRIPOS>ATOM
      1 C4         -0.0010    0.0000   -0.0120 ca        1 9PO     -0.087000
      2 C5          1.3940    0.0000   -0.0120 ca        1 9PO     -0.171000
      3 C1          1.3360   -0.0000    2.4070 ca        1 9PO     -0.221300
      4 N2         -0.0570   -0.0000    2.4220 na        1 9PO      0.252600
      5 O8         -0.6840   -0.0000    3.4730 o         1 9PO     -0.288000
      6 C3         -0.7070   -0.0000    1.1900 ca        1 9PO     -0.221300
      7 C6          2.0570    0.0000    1.2140 ca        1 9PO     -0.087000
      8 H4         -0.5680    0.0000   -0.9560 ha        1 9PO      0.153000
      9 H5          1.9560    0.0000   -0.9550 ha        1 9PO      0.148000
     10 H3         -1.8090    0.0000    1.2380 h4        1 9PO      0.185000
     11 H6          3.1570    0.0000    1.2640 ha        1 9PO      0.153000
     12 H1          1.8180    0.0000    3.4000 h4        1 9PO      0.185000
@<TRIPOS>BOND
     1    1    2 ar  
     2    1    6 ar  
     3    1    8 1   
     4    2    7 ar  
     5    2    9 1   
     6    3    4 2   
     7    3    7 ar  
     8    3   12 1   
     9    4    5 1   
    10    4    6 1   
    11    6   10 1   
    12    7   11 1   
@<TRIPOS>SUBSTRUCTURE
     1 9PO         1 TEMP              0 ****  ****    0 ROOT
