@<TRIPOS>MOLECULE
molecule
   33    34     1     0     0
SMALL
bcc


@<TRIPOS>ATOM
      1 N9           0.0000     0.0000     0.0000 na         1 9PP      -0.230000
      2 C8           1.3650     0.0000     0.0000 cc         1 9PP       0.459700
      3 N7           1.8090     0.0000     1.2220 nd         1 9PP      -0.595100
      4 C5           0.7610    -0.0020     2.0830 ca         1 9PP      -0.161200
      5 C6           0.6350    -0.0020     3.4830 ca         1 9PP       0.774200
      6 N6           1.7560    -0.0020     4.2930 nv         1 9PP      -1.028500
      7 N1          -0.5840    -0.0030     4.0110 nb         1 9PP      -0.852000
      8 C2          -1.6640    -0.0020     3.2410 ca         1 9PP       0.945900
      9 N2          -2.9130    -0.0020     3.8420 nv         1 9PP      -1.053500
     10 N3          -1.5910    -0.0010     1.9200 nb         1 9PP      -0.736000
     11 C4          -0.4110     0.0050     1.3090 ca         1 9PP       0.538800
     12 C10         -0.8670     0.0010    -1.1810 c3         1 9PP       0.070300
     13 C11         -1.2700     1.4390    -1.5160 c3         1 9PP       0.072100
     14 C12         -2.2730     1.4310    -2.6720 c3         1 9PP      -0.112100
     15 O13         -0.1100     2.1810    -1.8980 os         1 9PP      -0.415600
     16 P           -0.1670     3.7070     0.2870 p5         1 9PP       1.015700
     17 C14         -0.3470     3.5390    -1.5200 c3         1 9PP      -0.052800
     18 O2P          1.2840     3.2920     0.7090 o          1 9PP      -0.894167
     19 O3P         -0.4260     5.1950     0.7010 o          1 9PP      -0.894167
     20 O1P         -1.2050     2.7770     1.0030 o          1 9PP      -0.894167
     21 H81          1.9860    -0.0050    -0.8870 h5         1 9PP       0.056800
     22 HN61         1.7570     0.5220     5.1460 hn         1 9PP       0.422800
     23 HN62         2.5680    -0.5220     4.0250 hn         1 9PP       0.422800
     24 HN21        -3.2680     0.8360     4.2570 hn         1 9PP       0.419300
     25 HN22        -3.4760    -0.8290     3.8240 hn         1 9PP       0.419300
     26 H101        -0.3350    -0.4300    -2.0200 h1         1 9PP       0.028700
     27 H102        -1.7550    -0.5840    -0.9770 h1         1 9PP       0.028700
     28 H111        -1.7240     1.8990    -0.6470 h1         1 9PP       0.168700
     29 H121        -2.8590     2.3410    -2.6470 hc         1 9PP       0.014033
     30 H122        -2.9300     0.5750    -2.5730 hc         1 9PP       0.014033
     31 H123        -1.7390     1.3700    -3.6120 hc         1 9PP       0.014033
     32 H141        -1.3500     3.8260    -1.8110 h1         1 9PP       0.015700
     33 H142         0.3710     4.1820    -2.0150 h1         1 9PP       0.015700
@<TRIPOS>BOND
     1     1     2 1
     2     1    11 1
     3     1    12 1
     4     2     3 2
     5     2    21 1
     6     3     4 1
     7     4     5 ar
     8     4    11 ar
     9     5     6 1
    10     5     7 ar
    11     6    22 1
    12     6    23 1
    13     7     8 ar
    14     8     9 1
    15     8    10 ar
    16     9    24 1
    17     9    25 1
    18    10    11 ar
    19    12    13 1
    20    12    26 1
    21    12    27 1
    22    13    14 1
    23    13    15 1
    24    13    28 1
    25    14    29 1
    26    14    30 1
    27    14    31 1
    28    15    17 1
    29    16    17 1
    30    16    18 1
    31    16    19 1
    32    16    20 1
    33    17    32 1
    34    17    33 1
@<TRIPOS>SUBSTRUCTURE
     1 9PP         1 TEMP              0 ****  ****    0 ROOT
