@<TRIPOS>MOLECULE
9PQ
   55    58     1     0     0
SMALL
bcc


@<TRIPOS>ATOM
      1 O24          0.0000     0.0000     0.0000 o          1 9PQ      -0.646100
      2 C23          1.2150     0.0000     0.0000 c          1 9PQ       0.597700
      3 N25          1.8900     0.0000     1.1670 ns         1 9PQ      -0.202900
      4 C26          1.1570    -0.0000     2.4360 c3         1 9PQ       0.041000
      5 C27          2.1520    -0.0010     3.5990 c3         1 9PQ       0.141800
      6 N7           1.4170    -0.0010     4.8700 n3         1 9PQ      -0.529600
      7 C12          2.3240     0.2370     6.0030 c3         1 9PQ       0.106300
      8 C11          1.5110     0.2870     7.3000 c3         1 9PQ       0.215400
      9 O10          0.7750    -0.9290     7.4430 os         1 9PQ      -0.411600
     10 C9          -0.1190    -1.1930     6.3580 c3         1 9PQ       0.215400
     11 C8           0.6770    -1.2590     5.0510 c3         1 9PQ       0.106300
     12 C16          1.9540    -0.0050    -1.2790 ca         1 9PQ      -0.159600
     13 C15          3.3520    -0.0110    -1.2800 ca         1 9PQ      -0.059500
     14 C14          4.0390    -0.0170    -2.4720 ca         1 9PQ      -0.108000
     15 C17          1.2550    -0.0120    -2.4890 ca         1 9PQ      -0.059500
     16 C18          1.9440    -0.0160    -3.6810 ca         1 9PQ      -0.108000
     17 C13          3.3400    -0.0160    -3.6810 cp         1 9PQ      -0.006000
     18 C19          4.0800    -0.0220    -4.9620 cp         1 9PQ      -0.040000
     19 C2           4.0000     1.0880    -5.8400 ca         1 9PQ      -0.016000
     20 C20          4.8630    -1.1080    -5.3130 ca         1 9PQ      -0.080300
     21 C28          4.9590    -2.2890    -4.3840 c3         1 9PQ       0.272700
     22 O29          5.8180    -3.2780    -4.9570 oh         1 9PQ      -0.593800
     23 C21          5.5610    -1.1190    -6.5160 ca         1 9PQ      -0.083000
     24 C22          5.4950    -0.0690    -7.3800 ca         1 9PQ      -0.086000
     25 C1           4.7170     1.0580    -7.0600 ca         1 9PQ      -0.038000
     26 C6           4.6370     2.1580    -7.9320 ca         1 9PQ      -0.086000
     27 C5           3.8740     3.2330    -7.5920 ca         1 9PQ      -0.102000
     28 C4           3.1700     3.2600    -6.3910 ca         1 9PQ      -0.096000
     29 C3           3.2240     2.2100    -5.5230 ca         1 9PQ      -0.101000
     30 H1           2.8900     0.0390     1.1670 hn         1 9PQ       0.178500
     31 H2           0.5350     0.8840     2.4940 h1         1 9PQ       0.036200
     32 H3           0.5340    -0.8850     2.4930 h1         1 9PQ       0.036200
     33 H4           2.7750     0.8830     3.5420 h1         1 9PQ       0.010200
     34 H5           2.7740    -0.8860     3.5410 h1         1 9PQ       0.010200
     35 H7           3.0460    -0.5680     6.0620 h1         1 9PQ       0.019200
     36 H8           2.8360     1.1810     5.8620 h1         1 9PQ       0.019200
     37 H9           2.1820     0.4040     8.1420 h1         1 9PQ       0.013700
     38 H10          0.8230     1.1230     7.2610 h1         1 9PQ       0.013700
     39 H11         -0.6190    -2.1400     6.5240 h1         1 9PQ       0.013700
     40 H12         -0.8530    -0.3980     6.2930 h1         1 9PQ       0.013700
     41 H13         -0.0050    -1.3990     4.2210 h1         1 9PQ       0.019200
     42 H14          1.3760    -2.0850     5.0960 h1         1 9PQ       0.019200
     43 H15          3.8940    -0.0120    -0.3420 ha         1 9PQ       0.115500
     44 H16          5.1220    -0.0190    -2.4720 ha         1 9PQ       0.117000
     45 H17          0.1720    -0.0120    -2.4890 ha         1 9PQ       0.115500
     46 H18          1.4030    -0.0190    -4.6190 ha         1 9PQ       0.117000
     47 H19          3.9730    -2.7120    -4.2330 h1         1 9PQ      -0.000800
     48 H20          5.3640    -1.9680    -3.4320 h1         1 9PQ      -0.000800
     49 H21          5.8160    -4.0490    -4.4140 ho         1 9PQ       0.392000
     50 H22          6.1680    -1.9800    -6.7710 ha         1 9PQ       0.126000
     51 H23          6.0470    -0.0980    -8.3110 ha         1 9PQ       0.107000
     52 H24          5.1800     2.1500    -8.8700 ha         1 9PQ       0.106000
     53 H25          3.8140     4.0800    -8.2650 ha         1 9PQ       0.101000
     54 H26          2.5690     4.1270    -6.1430 ha         1 9PQ       0.102000
     55 H27          2.6710     2.2450    -4.5920 ha         1 9PQ       0.117000
@<TRIPOS>BOND
     1     1     2 2   
     2     2     3 1   
     3     2    12 1   
     4     3     4 1   
     5     3    30 1   
     6     4     5 1   
     7     4    31 1   
     8     4    32 1   
     9     5     6 1   
    10     5    33 1   
    11     5    34 1   
    12     6     7 1   
    13     6    11 1   
    14     7     8 1   
    15     7    35 1   
    16     7    36 1   
    17     8     9 1   
    18     8    37 1   
    19     8    38 1   
    20     9    10 1   
    21    10    11 1   
    22    10    39 1   
    23    10    40 1   
    24    11    41 1   
    25    11    42 1   
    26    12    13 ar  
    27    12    15 ar  
    28    13    14 ar  
    29    13    43 1   
    30    14    17 ar  
    31    14    44 1   
    32    15    16 ar  
    33    15    45 1   
    34    16    17 ar  
    35    16    46 1   
    36    17    18 1   
    37    18    19 ar  
    38    18    20 ar  
    39    19    25 ar  
    40    19    29 ar  
    41    20    21 1   
    42    20    23 ar  
    43    21    22 1   
    44    21    47 1   
    45    21    48 1   
    46    22    49 1   
    47    23    24 ar  
    48    23    50 1   
    49    24    25 ar  
    50    24    51 1   
    51    25    26 ar  
    52    26    27 ar  
    53    26    52 1   
    54    27    28 ar  
    55    27    53 1   
    56    28    29 ar  
    57    28    54 1   
    58    29    55 1   
@<TRIPOS>SUBSTRUCTURE
     1 9PQ         1 TEMP              0 ****  ****    0 ROOT
