@<TRIPOS>MOLECULE
9PY
   25    25     1     0     0
SMALL
bcc


@<TRIPOS>ATOM
      1 OAB         0.0390    0.7220    0.0430 o         1 9PY     -0.818300
      2 CAI         1.1040    0.0570   -0.0080 c         1 9PY      0.905600
      3 OAD         1.5160   -0.6140   -0.9950 o         1 9PY     -0.818300
      4 CAN         2.0180    0.0310    1.2700 c3        1 9PY      0.024800
      5 OAG         3.2040   -0.7150    1.0450 oh        1 9PY     -0.636800
      6 CAH         2.4130    1.4660    1.6140 c3        1 9PY     -0.071400
      7 CAL         3.1540    1.5400    2.9400 c3        1 9PY      0.131100
      8 OAE         3.4780    2.9000    3.1930 oh        1 9PY     -0.606800
      9 CAM         2.2640    0.9880    4.0680 c3        1 9PY     -0.006900
     10 OAF         2.9360    1.1100    5.3120 oh        1 9PY     -0.617800
     11 CAJ         1.8690   -0.4410    3.7410 c         1 9PY      0.569100
     12 OAC         2.1030   -1.3420    4.5560 o         1 9PY     -0.572100
     13 CAK         1.2080   -0.6250    2.4090 c3        1 9PY     -0.156700
     14 CAA         0.9530   -2.0860    2.1110 c3        1 9PY     -0.078100
     15 HAG         3.1100   -1.1360    0.1730 ho        1 9PY      0.433000
     16 HAH1        3.0760    1.8640    0.8040 hc        1 9PY      0.069700
     17 HAH2        1.4860    2.0940    1.6470 hc        1 9PY      0.069700
     18 HAK         0.2220   -0.0720    2.4390 hc        1 9PY      0.097700
     19 HAL         4.1050    0.9390    2.8900 h1        1 9PY      0.047700
     20 HAE         3.7700    2.9410    4.1130 ho        1 9PY      0.401000
     21 HAM         1.3400    1.6250    4.1700 h1        1 9PY      0.093700
     22 HAF         3.3740    0.2660    5.4910 ho        1 9PY      0.415000
     23 HAA1        1.9190   -2.6460    2.0940 hc        1 9PY      0.041367
     24 HAA2        0.2930   -2.5330    2.8920 hc        1 9PY      0.041367
     25 HAA3        0.4670   -2.1780    1.1090 hc        1 9PY      0.041367
@<TRIPOS>BOND
     1    1    2 1   
     2    2    3 1   
     3    2    4 1   
     4    4    5 1   
     5    4    6 1   
     6    4   13 1   
     7    5   15 1   
     8    6    7 1   
     9    6   16 1   
    10    6   17 1   
    11    7    8 1   
    12    7    9 1   
    13    7   19 1   
    14    8   20 1   
    15    9   10 1   
    16    9   11 1   
    17    9   21 1   
    18   10   22 1   
    19   11   12 2   
    20   11   13 1   
    21   13   14 1   
    22   13   18 1   
    23   14   23 1   
    24   14   24 1   
    25   14   25 1   
@<TRIPOS>SUBSTRUCTURE
     1 9PY         1 TEMP              0 ****  ****    0 ROOT
