@<TRIPOS>MOLECULE
molecule
   25    25     1     0     0
SMALL
bcc


@<TRIPOS>ATOM
      1 OAB          0.0000     0.0000     0.0000 o          1 9PY      -0.834800
      2 CAI          1.2090     0.0000     0.0000 c          1 9PY       0.879600
      3 OAD          1.8810     0.0060    -1.1610 o          1 9PY      -0.834800
      4 CAN          1.9610     0.0000     1.3060 c3         1 9PY       0.059800
      5 OAG          3.1550    -0.7720     1.1690 oh         1 9PY      -0.625800
      6 CAH          2.3240     1.4360     1.6860 c3         1 9PY      -0.117400
      7 CAL          3.1650     1.4390     2.9640 c3         1 9PY       0.143100
      8 OAE          3.5690     2.7750     3.2660 oh         1 9PY      -0.620800
      9 CAM          2.3300     0.8830     4.1230 c3         1 9PY       0.047100
     10 OAF          3.1490     0.7590     5.2870 oh         1 9PY      -0.589800
     11 CAJ          1.8020    -0.4780     3.7260 c          1 9PY       0.562100
     12 OAC          1.9520    -1.4340     4.4480 o          1 9PY      -0.529100
     13 CAK          1.0810    -0.6100     2.4030 c3         1 9PY      -0.133700
     14 CAA          0.8320    -2.0890     2.0980 c3         1 9PY      -0.078100
     15 HAG          3.6070    -0.5160     0.3820 ho         1 9PY       0.423000
     16 HAH1         2.8920     1.8870     0.8820 hc         1 9PY       0.059700
     17 HAH2         1.4160     2.0030     1.8530 hc         1 9PY       0.059700
     18 HAK          0.1390    -0.0790     2.4500 hc         1 9PY       0.089700
     19 HAL          4.0390     0.8160     2.8200 h1         1 9PY       0.061700
     20 HAE          4.4380     2.9240     2.9300 ho         1 9PY       0.397000
     21 HAM          1.5000     1.5490     4.3240 h1         1 9PY       0.053700
     22 HAF          2.7210     1.1730     6.0180 ho         1 9PY       0.393000
     23 HAA1         1.6540    -2.4800     1.5110 hc         1 9PY       0.045033
     24 HAA2         0.7570    -2.6420     3.0270 hc         1 9PY       0.045033
     25 HAA3        -0.0910    -2.1920     1.5410 hc         1 9PY       0.045033
@<TRIPOS>BOND
     1     1     2 1
     2     2     3 1
     3     2     4 1
     4     4     5 1
     5     4     6 1
     6     4    13 1
     7     6     7 1
     8     7     8 1
     9     7     9 1
    10     9    10 1
    11     9    11 1
    12    11    12 2
    13    11    13 1
    14    13    14 1
    15     5    15 1
    16     6    16 1
    17     6    17 1
    18    13    18 1
    19     7    19 1
    20     8    20 1
    21     9    21 1
    22    10    22 1
    23    14    23 1
    24    14    24 1
    25    14    25 1
@<TRIPOS>SUBSTRUCTURE
     1 9PY         1 TEMP              0 ****  ****    0 ROOT
