@<TRIPOS>MOLECULE
9QA
   54    57     1     0     0
SMALL
bcc


@<TRIPOS>ATOM
      1 C01          0.0000     0.0000     0.0000 ca         1 9QA      -0.105000
      2 C02          1.3820     0.0000     0.0000 ca         1 9QA      -0.099500
      3 C03          2.0740     0.0000     1.1980 ca         1 9QA      -0.099000
      4 C04          1.3820    -0.0010     2.3950 ca         1 9QA      -0.095300
      5 C05         -0.0000    -0.0020     2.3940 ca         1 9QA      -0.099000
      6 C06         -0.6910     0.0040     1.1970 ca         1 9QA      -0.099500
      7 C07          2.1360    -0.0030     3.6990 c3         1 9QA       0.043900
      8 C08          2.3910     1.4390     4.1430 c3         1 9QA      -0.100400
      9 C09          3.1450     1.4370     5.4480 c          1 9QA       0.588100
     10 O10          3.4480     0.3860     5.9720 o          1 9QA      -0.644100
     11 N11          3.4810     2.6040     6.0330 n          1 9QA      -0.157800
     12 C12          3.1160     3.8850     5.4130 c3         1 9QA       0.051500
     13 C13          2.3610     4.7340     6.4420 c3         1 9QA      -0.060400
     14 C14          3.2110     4.8670     7.7080 c3         1 9QA       0.147800
     15 C15          3.4540     3.4810     8.3090 c3         1 9QA      -0.060400
     16 C16          4.2160     2.6190     7.3050 c3         1 9QA       0.051500
     17 C17          2.4750     5.7430     8.7250 c3         1 9QA      -0.007000
     18 N18          3.2880     5.8710     9.9370 n          1 9QA       0.027700
     19 C19          4.1810     6.8890    10.0450 cc         1 9QA       0.354800
     20 N20          4.9360     7.0700    11.0850 nd         1 9QA      -0.538100
     21 C21          4.8830     6.2380    12.1550 ca         1 9QA       0.163400
     22 C22          5.6940     6.4300    13.2750 ca         1 9QA      -0.095000
     23 C23          5.6030     5.5580    14.3370 ca         1 9QA      -0.000600
     24 C24          4.7150     4.4890    14.3060 ca         1 9QA      -0.127000
     25 C25          3.9100     4.2820    13.2200 ca         1 9QA      -0.006000
     26 C26          3.9820     5.1490    12.1340 ca         1 9QA      -0.218600
     27 C27          3.1380     4.9760    10.9430 c          1 9QA       0.631100
     28 O28          2.3380     4.0630    10.8620 o          1 9QA      -0.667500
     29 Cl1          6.6120     5.7950    15.7300 cl         1 9QA      -0.017400
     30 O30          4.4640     5.4700     7.3790 oh         1 9QA      -0.579800
     31 H011        -0.5420     0.0020    -0.9380 ha         1 9QA       0.102000
     32 H021         1.9240    -0.0010    -0.9380 ha         1 9QA       0.102000
     33 H031         3.1570     0.0000     1.1980 ha         1 9QA       0.106000
     34 H051        -0.5420    -0.0010     3.3320 ha         1 9QA       0.106000
     35 H061        -1.7740     0.0040     1.1970 ha         1 9QA       0.102000
     36 H072         3.0830    -0.5130     3.5690 hc         1 9QA       0.034700
     37 H071         1.5510    -0.5140     4.4540 hc         1 9QA       0.034700
     38 H081         2.9760     1.9510     3.3880 hc         1 9QA       0.031200
     39 H082         1.4440     1.9490     4.2730 hc         1 9QA       0.031200
     40 H122         2.4790     3.7040     4.5560 h1         1 9QA       0.037200
     41 H121         4.0140     4.4060     5.1020 h1         1 9QA       0.037200
     42 H131         1.4220     4.2520     6.6870 hc         1 9QA       0.037700
     43 H132         2.1730     5.7170     6.0290 hc         1 9QA       0.037700
     44 H151         2.5030     3.0150     8.5360 hc         1 9QA       0.037700
     45 H152         4.0400     3.5790     9.2160 hc         1 9QA       0.037700
     46 H161         5.2040     3.0340     7.1480 h1         1 9QA       0.037200
     47 H162         4.2980     1.6080     7.6860 h1         1 9QA       0.037200
     48 H172         2.3040     6.7240     8.3000 h1         1 9QA       0.047700
     49 H171         1.5250     5.2860     8.9750 h1         1 9QA       0.047700
     50 H191         4.2660     7.5860     9.2200 h5         1 9QA       0.003800
     51 H221         6.3900     7.2600    13.3080 ha         1 9QA       0.132000
     52 H241         4.6580     3.8140    15.1520 ha         1 9QA       0.120000
     53 H251         3.2210     3.4460    13.2050 ha         1 9QA       0.127000
     54 H301         4.3120     6.2920     6.9420 ho         1 9QA       0.392000
@<TRIPOS>BOND
     1     1     2 ar  
     2     1     6 ar  
     3     1    31 1   
     4     2     3 ar  
     5     2    32 1   
     6     3     4 ar  
     7     3    33 1   
     8     4     5 ar  
     9     4     7 1   
    10     5     6 ar  
    11     5    34 1   
    12     6    35 1   
    13     7     8 1   
    14     7    36 1   
    15     7    37 1   
    16     8     9 1   
    17     8    38 1   
    18     8    39 1   
    19     9    10 2   
    20     9    11 1   
    21    11    12 1   
    22    11    16 1   
    23    12    13 1   
    24    12    40 1   
    25    12    41 1   
    26    13    14 1   
    27    13    42 1   
    28    13    43 1   
    29    14    15 1   
    30    14    17 1   
    31    14    30 1   
    32    15    16 1   
    33    15    44 1   
    34    15    45 1   
    35    16    46 1   
    36    16    47 1   
    37    17    18 1   
    38    17    48 1   
    39    17    49 1   
    40    18    19 1   
    41    18    27 1   
    42    19    20 2   
    43    19    50 1   
    44    20    21 1   
    45    21    22 ar  
    46    21    26 ar  
    47    22    23 ar  
    48    22    51 1   
    49    23    24 ar  
    50    23    29 1   
    51    24    25 ar  
    52    24    52 1   
    53    25    26 ar  
    54    25    53 1   
    55    26    27 1   
    56    27    28 2   
    57    30    54 1   
@<TRIPOS>SUBSTRUCTURE
     1 9QA         1 TEMP              0 ****  ****    0 ROOT
