@<TRIPOS>MOLECULE
molecule
   54    57     1     0     0
SMALL
bcc


@<TRIPOS>ATOM
      1 C01          0.0000     0.0000     0.0000 ca         1 9QA      -0.131000
      2 C02          1.3820     0.0000     0.0000 ca         1 9QA      -0.127000
      3 C03          2.0740     0.0000     1.1980 ca         1 9QA      -0.125500
      4 C04          1.3820    -0.0010     2.3950 ca         1 9QA      -0.088300
      5 C05         -0.0000    -0.0020     2.3940 ca         1 9QA      -0.125500
      6 C06         -0.6910     0.0040     1.1970 ca         1 9QA      -0.127000
      7 C07          2.1360    -0.0030     3.6990 c3         1 9QA      -0.021100
      8 C08          2.3910     1.4390     4.1430 c3         1 9QA      -0.153400
      9 C09          3.1450     1.4370     5.4480 c          1 9QA       0.661100
     10 O10          3.4480     0.3860     5.9720 o          1 9QA      -0.607100
     11 N11          3.4810     2.6040     6.0330 n          1 9QA      -0.493800
     12 C12          3.1160     3.8850     5.4130 c3         1 9QA       0.109000
     13 C13          2.3610     4.7340     6.4420 c3         1 9QA      -0.103400
     14 C14          3.2110     4.8670     7.7080 c3         1 9QA       0.131800
     15 C15          3.4540     3.4810     8.3090 c3         1 9QA      -0.103400
     16 C16          4.2160     2.6190     7.3050 c3         1 9QA       0.109000
     17 C17          2.4750     5.7430     8.7250 c3         1 9QA       0.064000
     18 N18          3.2880     5.8710     9.9370 n          1 9QA      -0.378300
     19 C19          4.1810     6.8890    10.0450 cc         1 9QA       0.523800
     20 N20          4.9360     7.0700    11.0850 nd         1 9QA      -0.646100
     21 C21          4.8830     6.2380    12.1550 ca         1 9QA       0.205400
     22 C22          5.6940     6.4300    13.2750 ca         1 9QA      -0.117000
     23 C23          5.6030     5.5580    14.3370 ca         1 9QA       0.063400
     24 C24          4.7150     4.4890    14.3060 ca         1 9QA      -0.149000
     25 C25          3.9100     4.2820    13.2200 ca         1 9QA      -0.044000
     26 C26          3.9820     5.1490    12.1340 ca         1 9QA      -0.208600
     27 C27          3.1380     4.9760    10.9430 c          1 9QA       0.708100
     28 O28          2.3380     4.0630    10.8620 o          1 9QA      -0.625500
     29 Cl1          6.6120     5.7950    15.7300 cl         1 9QA      -0.097400
     30 O30          4.4640     5.4700     7.3790 oh         1 9QA      -0.594800
     31 H011        -0.5420     0.0020    -0.9380 ha         1 9QA       0.129000
     32 H021         1.9240    -0.0010    -0.9380 ha         1 9QA       0.129000
     33 H031         3.1570     0.0000     1.1980 ha         1 9QA       0.130500
     34 H051        -0.5420    -0.0010     3.3320 ha         1 9QA       0.130500
     35 H061        -1.7740     0.0040     1.1970 ha         1 9QA       0.129000
     36 H072         3.0830    -0.5130     3.5690 hc         1 9QA       0.066200
     37 H071         1.5510    -0.5140     4.4540 hc         1 9QA       0.066200
     38 H081         2.9760     1.9510     3.3880 hc         1 9QA       0.061700
     39 H082         1.4440     1.9490     4.2730 hc         1 9QA       0.061700
     40 H122         2.4790     3.7040     4.5560 h1         1 9QA       0.063950
     41 H121         4.0140     4.4060     5.1020 h1         1 9QA       0.063950
     42 H131         1.4220     4.2520     6.6870 hc         1 9QA       0.064200
     43 H132         2.1730     5.7170     6.0290 hc         1 9QA       0.064200
     44 H151         2.5030     3.0150     8.5360 hc         1 9QA       0.064200
     45 H152         4.0400     3.5790     9.2160 hc         1 9QA       0.064200
     46 H161         5.2040     3.0340     7.1480 h1         1 9QA       0.063950
     47 H162         4.2980     1.6080     7.6860 h1         1 9QA       0.063950
     48 H172         2.3040     6.7240     8.3000 h1         1 9QA       0.073200
     49 H171         1.5250     5.2860     8.9750 h1         1 9QA       0.073200
     50 H191         4.2660     7.5860     9.2200 h5         1 9QA       0.054800
     51 H221         6.3900     7.2600    13.3080 ha         1 9QA       0.165000
     52 H241         4.6580     3.8140    15.1520 ha         1 9QA       0.150000
     53 H251         3.2210     3.4460    13.2050 ha         1 9QA       0.160000
     54 H301         4.3120     6.2920     6.9420 ho         1 9QA       0.398000
@<TRIPOS>BOND
     1     7     4 1
     2     7     8 1
     3     4     3 ar
     4     4     5 ar
     5     3     2 ar
     6     5     6 ar
     7     8     9 1
     8     2     1 ar
     9     6     1 ar
    10    10     9 2
    11     9    11 1
    12    11    16 1
    13    11    12 1
    14    16    15 1
    15    15    14 1
    16    12    13 1
    17    13    14 1
    18    28    27 2
    19    14    17 1
    20    14    30 1
    21    17    18 1
    22    27    18 1
    23    27    26 1
    24    25    26 ar
    25    25    24 ar
    26    18    19 1
    27    26    21 ar
    28    24    23 ar
    29    19    20 2
    30    21    20 1
    31    21    22 ar
    32    23    22 ar
    33    23    29 1
    34     1    31 1
    35     2    32 1
    36     3    33 1
    37     5    34 1
    38     6    35 1
    39     7    36 1
    40     7    37 1
    41     8    38 1
    42     8    39 1
    43    12    40 1
    44    12    41 1
    45    13    42 1
    46    13    43 1
    47    15    44 1
    48    15    45 1
    49    16    46 1
    50    16    47 1
    51    17    48 1
    52    17    49 1
    53    19    50 1
    54    22    51 1
    55    24    52 1
    56    25    53 1
    57    30    54 1
@<TRIPOS>SUBSTRUCTURE
     1 9QA         1 TEMP              0 ****  ****    0 ROOT
