@<TRIPOS>MOLECULE
molecule
   84    88     1     0     0
SMALL
bcc


@<TRIPOS>ATOM
      1 N1           0.0000     0.0000     0.0000 n          1 9QD      -0.494800
      2 C4           1.4700     0.0000     0.0000 c3         1 9QD       0.110000
      3 C5          -0.6860     0.9330    -0.6890 c          1 9QD       0.662100
      4 C6          -2.1940     0.9200    -0.6780 c3         1 9QD      -0.150400
      5 C7          -2.7190     2.0760    -1.5320 c3         1 9QD      -0.012400
      6 C8          -2.3230     1.8530    -2.9920 c3         1 9QD      -0.083100
      7 C10         -4.9880     1.0570    -1.8150 ca         1 9QD      -0.125500
      8 C13         -6.2100     3.3380    -0.8420 ca         1 9QD      -0.126500
      9 C15         -0.7070    -1.0390     0.7610 c3         1 9QD       0.110000
     10 C17          4.0100    -0.0730     3.6380 cc         1 9QD       0.503800
     11 C20          8.1980    -2.2450     3.5880 ca         1 9QD       0.083600
     12 C21         10.2280    -1.2150     4.2630 c          1 9QD       0.661100
     13 C22         11.7330    -1.2110     4.3410 c3         1 9QD      -0.139400
     14 C24         14.0630     2.6340     5.5910 c3         1 9QD       0.136800
     15 C28         14.2640     0.2380     5.8580 c3         1 9QD       0.136800
     16 N            3.3160    -1.2420     3.6260 n          1 9QD      -0.380300
     17 C            3.9650    -2.4290     3.6070 c          1 9QD       0.717100
     18 O            3.3550    -3.4820     3.5960 o          1 9QD      -0.628500
     19 C1           1.8520    -1.2160     3.6340 c3         1 9QD       0.066000
     20 C11         -6.3650     1.1140    -1.7150 ca         1 9QD      -0.126500
     21 C12         -6.9760     2.2540    -1.2290 ca         1 9QD      -0.131000
     22 C14         -4.8320     3.2760    -0.9300 ca         1 9QD      -0.125500
     23 C16         -0.1880    -1.0340     2.2030 c3         1 9QD      -0.109400
     24 C18          6.0700    -1.1350     3.6130 ca         1 9QD       0.206400
     25 C19          7.4620    -1.0720     3.6070 ca         1 9QD      -0.114000
     26 C2           1.3340    -1.1860     2.1940 c3         1 9QD       0.134800
     27 C23         12.1980    -0.0100     5.1680 c3         1 9QD       0.124800
     28 C25         15.5880     2.7590     5.5590 c3         1 9QD       0.147300
     29 C27         15.7890     0.3620     5.8260 c3         1 9QD       0.147300
     30 C29          7.5580    -3.4860     3.5750 ca         1 9QD      -0.184000
     31 C3           1.9630     0.0000     1.4500 c3         1 9QD      -0.109400
     32 C30          6.1950    -3.5660     3.5800 ca         1 9QD      -0.037000
     33 C31          5.4330    -2.3980     3.5990 ca         1 9QD      -0.217600
     34 C9          -4.2200     2.1380    -1.4230 ca         1 9QD      -0.082300
     35 N2           5.3070    -0.0140     3.6320 nd         1 9QD      -0.638100
     36 N4          13.6700     1.3210     5.0620 n3         1 9QD      -0.710600
     37 N5          16.1820     1.6760     6.3550 n3         1 9QD      -0.731600
     38 O1           1.6860    -2.4060     1.5380 oh         1 9QD      -0.585800
     39 O2          -0.0920     1.7830    -1.3170 o          1 9QD      -0.609100
     40 O3           9.5910    -0.3430     4.8150 o          1 9QD      -0.580100
     41 H1          10.1180    -2.8520     3.0500 hn         1 9QD       0.328500
     42 H2           1.8320     0.8870    -0.5060 h1         1 9QD       0.065200
     43 H3           1.8320    -0.8870    -0.5060 h1         1 9QD       0.065200
     44 H4          -2.5490     1.0320     0.3390 hc         1 9QD       0.062200
     45 H5          -2.5500    -0.0190    -1.0840 hc         1 9QD       0.062200
     46 H6          -2.2920     3.0080    -1.1800 hc         1 9QD       0.072700
     47 H7          -1.4490     2.4500    -3.2250 hc         1 9QD       0.042033
     48 H8          -2.0970     0.8050    -3.1490 hc         1 9QD       0.042033
     49 H9          -3.1430     2.1460    -3.6370 hc         1 9QD       0.042033
     50 H10         -4.5090     0.1630    -2.1970 ha         1 9QD       0.130500
     51 H11         -6.6890     4.2310    -0.4580 ha         1 9QD       0.129000
     52 H12         -1.7700    -0.8310     0.7570 h1         1 9QD       0.065200
     53 H13         -0.5190    -2.0070     0.3120 h1         1 9QD       0.065200
     54 H14          3.4530     0.8560     3.6530 h5         1 9QD       0.055800
     55 H15         12.1460    -1.1420     3.3420 hc         1 9QD       0.068200
     56 H16         12.0730    -2.1260     4.8110 hc         1 9QD       0.068200
     57 H18         13.6250     3.4140     4.9790 h1         1 9QD       0.050450
     58 H19         17.9060     2.7620     6.8450 h1         1 9QD       0.031033
     59 H20         18.0520     1.7370     5.4110 h1         1 9QD       0.031033
     60 H21         18.0530     1.0090     7.0230 h1         1 9QD       0.031033
     61 H22         13.9180     0.3120     6.8820 h1         1 9QD       0.050450
     62 H23         13.9720    -0.7180     5.4410 h1         1 9QD       0.050450
     63 H24          1.5090    -0.3320     4.1590 h1         1 9QD       0.072200
     64 H25          1.4780    -2.1010     4.1340 h1         1 9QD       0.072200
     65 H26         -6.9660     0.2660    -2.0210 ha         1 9QD       0.129000
     66 H27         -8.0560     2.3000    -1.1560 ha         1 9QD       0.128000
     67 H28         -4.2310     4.1250    -0.6270 ha         1 9QD       0.130500
     68 H29         -0.4540    -0.0970     2.6770 hc         1 9QD       0.058200
     69 H30         -0.6300    -1.8590     2.7470 hc         1 9QD       0.058200
     70 H31          7.9610    -0.1190     3.4850 ha         1 9QD       0.179000
     71 H32         11.8590     0.9050     4.6990 h1         1 9QD       0.075200
     72 H33         11.7850    -0.0780     6.1670 h1         1 9QD       0.075200
     73 H34         15.8800     3.7140     5.9770 h1         1 9QD       0.038200
     74 H35         15.9350     2.6850     4.5350 h1         1 9QD       0.038200
     75 H36         16.1370     0.2660     4.8040 h1         1 9QD       0.038200
     76 H37         16.2270    -0.4180     6.4370 h1         1 9QD       0.038200
     77 H38          8.1490    -4.3940     3.5630 ha         1 9QD       0.135000
     78 H39          3.0420    -0.0950     1.4650 hc         1 9QD       0.058200
     79 H40          1.6690     0.9250     1.9310 hc         1 9QD       0.058200
     80 H41          5.7070    -4.5330     3.5700 ha         1 9QD       0.156000
     81 H44          1.1560    -3.1090     1.8750 ho         1 9QD       0.413000
     82 N3           9.5920    -2.1870     3.5810 ns         1 9QD      -0.478100
     83 H17         13.7150     2.7300     6.6120 h1         1 9QD       0.050450
     84 C26         17.6440     1.8040     6.4120 c3         1 9QD       0.152100
@<TRIPOS>BOND
     1     6     5 1
     2     5     4 1
     3     5    34 1
     4     4     3 1
     5    22    34 ar
     6    22     8 ar
     7    34     7 ar
     8     8    21 ar
     9     7    20 ar
    10     3    39 2
    11     3     1 1
    12    21    20 ar
    13     9     1 1
    14     9    23 1
    15     1     2 1
    16    23    26 1
    17    18    17 2
    18    32    30 ar
    19    32    33 ar
    20     2    31 1
    21    30    11 ar
    22    17    33 1
    23    17    16 1
    24    26    31 1
    25    26    38 1
    26    26    19 1
    27    33    24 ar
    28    11    82 1
    29    11    25 ar
    30    19    16 1
    31    82    12 1
    32    16    10 1
    33    24    25 ar
    34    24    35 1
    35    12    40 2
    36    12    13 1
    37    27    36 1
    38    27    13 1
    39    10    35 2
    40    14    36 1
    41    14    28 1
    42    15    36 1
    43    15    29 1
    44    37    28 1
    45    37    29 1
    46    37    84 1
    47    82    41 1
    48     2    42 1
    49     2    43 1
    50     4    44 1
    51     4    45 1
    52     5    46 1
    53     6    47 1
    54     6    48 1
    55     6    49 1
    56     7    50 1
    57     8    51 1
    58     9    52 1
    59     9    53 1
    60    10    54 1
    61    13    55 1
    62    13    56 1
    63    14    83 1
    64    14    57 1
    65    84    58 1
    66    84    59 1
    67    84    60 1
    68    15    61 1
    69    15    62 1
    70    19    63 1
    71    19    64 1
    72    20    65 1
    73    21    66 1
    74    22    67 1
    75    23    68 1
    76    23    69 1
    77    25    70 1
    78    27    71 1
    79    27    72 1
    80    28    73 1
    81    28    74 1
    82    29    75 1
    83    29    76 1
    84    30    77 1
    85    31    78 1
    86    31    79 1
    87    32    80 1
    88    38    81 1
@<TRIPOS>SUBSTRUCTURE
     1 9QD         1 TEMP              0 ****  ****    0 ROOT
