@<TRIPOS>MOLECULE
molecule
   35    35     1     0     0
SMALL
bcc


@<TRIPOS>ATOM
      1 O1           0.0000     0.0000     0.0000 os         1 9QG      -0.407600
      2 O5           1.9060     0.0000     1.3480 os         1 9QG      -0.433600
      3 C6           3.7210    -0.0520     2.9420 c3         1 9QG       0.146400
      4 O6           3.2730    -1.2740     3.5320 oh         1 9QG      -0.604800
      5 C1           1.4290     0.0000     0.0000 c3         1 9QG       0.316900
      6 C2           1.9390     1.2510    -0.7200 c3         1 9QG       0.113100
      7 C3           3.4700     1.2750    -0.6630 c3         1 9QG       0.140100
      8 C4           3.9160     1.2240     0.8010 c3         1 9QG       0.118100
      9 C5           3.3300    -0.0260     1.4640 c3         1 9QG       0.153100
     10 O2           1.5130     1.2240    -2.0840 oh         1 9QG      -0.589800
     11 O3           3.9530     2.4740    -1.2700 os         1 9QG      -0.377600
     12 O4           3.4490     2.3900     1.4840 oh         1 9QG      -0.577800
     13 CAP          3.9810     3.6920    -3.3360 c          1 9QG       0.901600
     14 OAQ          3.7330     4.6650    -2.6650 o          1 9QG      -0.835800
     15 CAM          4.2020     2.3560    -2.6730 c3         1 9QG       0.024100
     16 CAN          5.6470     1.9080    -2.8980 c3         1 9QG      -0.100100
     17 CAO         -0.5810    -1.1830     0.5520 c3         1 9QG       0.132700
     18 H2           3.2610     0.7860     3.4520 h1         1 9QG       0.034200
     19 H3           3.6610    -1.3710     4.3860 ho         1 9QG       0.392000
     20 H4           1.7950    -0.8830    -0.5110 h2         1 9QG       0.027700
     21 H5           1.5470     2.1340    -0.2300 h1         1 9QG       0.086700
     22 H6           3.8630     0.4130    -1.1880 h1         1 9QG       0.037700
     23 H7           4.9980     1.1810     0.8470 h1         1 9QG       0.041700
     24 H8           3.7140    -0.9090     0.9680 h1         1 9QG       0.043700
     25 H9           0.6860     1.6700    -2.1630 ho         1 9QG       0.413000
     26 H10          4.1860     2.8910     1.7910 ho         1 9QG       0.400000
     27 H12          3.5260     1.6250    -3.0990 h1         1 9QG       0.052700
     28 H13          5.8760     1.9440    -3.9570 hc         1 9QG       0.024700
     29 H14          5.7720     0.8950    -2.5360 hc         1 9QG       0.024700
     30 H15          6.3180     2.5680    -2.3620 hc         1 9QG       0.024700
     31 H16         -1.6090    -1.2690     0.2210 h1         1 9QG       0.027700
     32 H17         -0.5530    -1.1290     1.6330 h1         1 9QG       0.027700
     33 H18         -0.0210    -2.0490     0.2200 h1         1 9QG       0.027700
     34 OAR          4.0520     3.7970    -4.6730 o          1 9QG      -0.835800
     35 H1           4.7980     0.0190     3.0320 h1         1 9QG       0.034200
@<TRIPOS>BOND
     1    14    13 1
     2    34    13 1
     3    13    15 1
     4    15    16 1
     5    15    11 1
     6    11     7 1
     7     8     7 1
     8     8    12 1
     9     8     9 1
    10     7     6 1
    11     3     4 1
    12     3     9 1
    13     9     2 1
    14     6    10 1
    15     6     5 1
    16     2     5 1
    17     5     1 1
    18     1    17 1
    19     3    35 1
    20     3    18 1
    21     4    19 1
    22     5    20 1
    23     6    21 1
    24     7    22 1
    25     8    23 1
    26     9    24 1
    27    10    25 1
    28    12    26 1
    29    15    27 1
    30    16    28 1
    31    16    29 1
    32    16    30 1
    33    17    31 1
    34    17    32 1
    35    17    33 1
@<TRIPOS>SUBSTRUCTURE
     1 9QG         1 TEMP              0 ****  ****    0 ROOT
