@<TRIPOS>MOLECULE
molecule
   40    41     1     0     0
SMALL
bcc


@<TRIPOS>ATOM
      1 C4A          0.0000     0.0000     0.0000 c3         1 9QJ      -0.017100
      2 CGF          1.5300     0.0000     0.0000 c3         1 9QJ      -0.115000
      3 CDF          2.0480     0.0000     1.4230 c2         1 9QJ       0.444300
      4 NF           1.8390     0.9010     2.3060 n2         1 9QJ      -0.800100
      5 CEF          2.8620    -1.2680     1.6080 c3         1 9QJ      -0.166700
      6 CAF          3.3050    -1.6550     0.1740 c3         1 9QJ      -0.163700
      7 CF           3.5970    -3.1310     0.0840 c          1 9QJ       0.900600
      8 O1F          2.9540    -3.8290    -0.6620 o          1 9QJ      -0.866300
      9 O2F          4.5720    -3.6690     0.8340 o          1 9QJ      -0.866300
     10 CBF          2.0570    -1.2880    -0.6680 c3         1 9QJ      -0.063400
     11 C4          -0.5020     1.2800     0.6190 ca         1 9QJ      -0.071300
     12 C3          -0.8770     1.3240     1.9580 ca         1 9QJ      -0.002200
     13 O3          -0.7980     0.2110     2.7330 oh         1 9QJ      -0.516100
     14 C2          -1.3340     2.5210     2.4900 ca         1 9QJ       0.343600
     15 C2A         -1.7450     2.5840     3.9370 c3         1 9QJ      -0.122400
     16 N1          -1.4120     3.6030     1.7420 nb         1 9QJ      -0.723000
     17 C6          -1.0640     3.5950     0.4690 ca         1 9QJ       0.432200
     18 C5          -0.5940     2.4410    -0.1300 ca         1 9QJ      -0.152600
     19 C5A         -0.1930     2.4460    -1.5830 c3         1 9QJ       0.251700
     20 O4P         -0.4990     3.7180    -2.1570 os         1 9QJ      -0.585200
     21 P           -0.2020     4.0780    -3.6980 p5         1 9QJ       1.182900
     22 O2P         -1.1150     3.1540    -4.6500 o          1 9QJ      -0.911833
     23 O3P         -0.5490     5.6280    -3.9630 o          1 9QJ      -0.911833
     24 O1P          1.2270     3.8340    -3.9960 o          1 9QJ      -0.911833
     25 H1          -0.3610    -0.8450     0.5740 hc         1 9QJ       0.050200
     26 H2          -0.3610    -0.0740    -1.0190 hc         1 9QJ       0.050200
     27 H3           1.9060     0.8680    -0.5280 hc         1 9QJ       0.088700
     28 H4           2.2290     0.8050     3.2220 hn         1 9QJ       0.363400
     29 H5           3.7270    -1.0730     2.2300 hc         1 9QJ       0.045700
     30 H6           2.2480    -2.0500     2.0370 hc         1 9QJ       0.045700
     31 H7           4.1610    -1.0670    -0.1340 hc         1 9QJ       0.047700
     32 H9           1.3150    -2.0760    -0.6100 hc         1 9QJ       0.055700
     33 H10          2.3370    -1.0940    -1.6960 hc         1 9QJ       0.055700
     34 H11         -1.6540    -0.1760     2.8160 ho         1 9QJ       0.383000
     35 H12         -1.9600     3.6120     4.2070 hc         1 9QJ       0.026033
     36 H13         -0.9410     2.2090     4.5580 hc         1 9QJ       0.026033
     37 H14         -2.6310     1.9790     4.0880 hc         1 9QJ       0.026033
     38 H15         -1.1400     4.5060    -0.1120 h4         1 9QJ       0.071100
     39 H16         -0.7370     1.6720    -2.1100 h1         1 9QJ       0.037700
     40 H17          0.8710     2.2590    -1.6650 h1         1 9QJ       0.037700
@<TRIPOS>BOND
     1     8     7 1
     2    24    21 1
     3    22    21 1
     4    23    21 1
     5    21    20 1
     6     7     9 1
     7     7     6 1
     8     5     3 1
     9     5     6 1
    10     4     3 2
    11     3     2 1
    12     6    10 1
    13    20    19 1
    14    10     2 1
    15    19    18 1
    16     2     1 1
    17     1    11 1
    18    18    11 ar
    19    18    17 ar
    20    11    12 ar
    21    17    16 ar
    22    12    13 1
    23    12    14 ar
    24    16    14 ar
    25    14    15 1
    26     1    25 1
    27     1    26 1
    28     2    27 1
    29     4    28 1
    30     5    29 1
    31     5    30 1
    32     6    31 1
    33    10    32 1
    34    10    33 1
    35    13    34 1
    36    15    35 1
    37    15    36 1
    38    15    37 1
    39    17    38 1
    40    19    39 1
    41    19    40 1
@<TRIPOS>SUBSTRUCTURE
     1 9QJ         1 TEMP              0 ****  ****    0 ROOT
