@<TRIPOS>MOLECULE
9QJ
   40    41     1     0     0
SMALL
bcc


@<TRIPOS>ATOM
      1 C4A          0.0000     0.0000     0.0000 c3         1 9QJ       0.043900
      2 CGF          1.5300     0.0000     0.0000 c3         1 9QJ      -0.099000
      3 CDF          2.0480     0.0000     1.4230 c2         1 9QJ       0.385300
      4 NF           1.8390     0.9010     2.3060 n2         1 9QJ      -0.665100
      5 CEF          2.8620    -1.2680     1.6080 c3         1 9QJ      -0.089700
      6 CAF          3.3050    -1.6550     0.1740 c3         1 9QJ      -0.141700
      7 CF           3.5970    -3.1310     0.0840 c          1 9QJ       0.990600
      8 O1F          2.9540    -3.8290    -0.6620 o          1 9QJ      -0.916300
      9 O2F          4.5720    -3.6690     0.8340 o          1 9QJ      -0.916300
     10 CBF          2.0570    -1.2880    -0.6680 c3         1 9QJ      -0.016400
     11 C4          -0.5020     1.2800     0.6190 ca         1 9QJ      -0.099300
     12 C3          -0.8770     1.3240     1.9580 ca         1 9QJ       0.015800
     13 O3          -0.7980     0.2110     2.7330 oh         1 9QJ      -0.492100
     14 C2          -1.3340     2.5210     2.4900 ca         1 9QJ       0.267600
     15 C2A         -1.7450     2.5840     3.9370 c3         1 9QJ      -0.018400
     16 N1          -1.4120     3.6030     1.7420 nb         1 9QJ      -0.615000
     17 C6          -1.0640     3.5950     0.4690 ca         1 9QJ       0.397200
     18 C5          -0.5940     2.4410    -0.1300 ca         1 9QJ      -0.141600
     19 C5A         -0.1930     2.4460    -1.5830 c3         1 9QJ       0.318700
     20 O4P         -0.4990     3.7180    -2.1570 os         1 9QJ      -0.480200
     21 P           -0.2020     4.0780    -3.6980 p5         1 9QJ       0.670900
     22 O2P         -1.1150     3.1540    -4.6500 o          1 9QJ      -0.756500
     23 O3P         -0.5490     5.6280    -3.9630 o          1 9QJ      -0.756500
     24 O1P          1.2270     3.8340    -3.9960 o          1 9QJ      -0.756500
     25 H1          -0.3610    -0.8450     0.5740 hc         1 9QJ       0.021700
     26 H2          -0.3610    -0.0740    -1.0190 hc         1 9QJ       0.021700
     27 H3           1.9060     0.8680    -0.5280 hc         1 9QJ       0.065700
     28 H4           2.2290     0.8050     3.2220 hn         1 9QJ       0.287400
     29 H5           3.7270    -1.0730     2.2300 hc         1 9QJ       0.016200
     30 H6           2.2480    -2.0500     2.0370 hc         1 9QJ       0.016200
     31 H7           4.1610    -1.0670    -0.1340 hc         1 9QJ       0.024700
     32 H9           2.3370    -1.0940    -1.6960 hc         1 9QJ       0.028200
     33 H10          1.3150    -2.0760    -0.6100 hc         1 9QJ       0.028200
     34 H11         -1.6540    -0.1760     2.8160 ho         1 9QJ       0.367000
     35 H12         -1.9600     3.6120     4.2070 hc         1 9QJ      -0.011300
     36 H13         -2.6310     1.9790     4.0880 hc         1 9QJ      -0.011300
     37 H14         -0.9410     2.2090     4.5580 hc         1 9QJ      -0.011300
     38 H15         -1.1400     4.5060    -0.1120 h4         1 9QJ       0.031100
     39 H16          0.8710     2.2590    -1.6650 h1         1 9QJ      -0.002800
     40 H17         -0.7370     1.6720    -2.1100 h1         1 9QJ      -0.002800
@<TRIPOS>BOND
     1     1     2 1   
     2     1    11 1   
     3     1    25 1   
     4     1    26 1   
     5     2     3 1   
     6     2    10 1   
     7     2    27 1   
     8     3     4 2   
     9     3     5 1   
    10     4    28 1   
    11     5     6 1   
    12     5    29 1   
    13     5    30 1   
    14     6     7 1   
    15     6    10 1   
    16     6    31 1   
    17     7     8 1   
    18     7     9 1   
    19    10    32 1   
    20    10    33 1   
    21    11    12 ar  
    22    11    18 ar  
    23    12    13 1   
    24    12    14 ar  
    25    13    34 1   
    26    14    15 1   
    27    14    16 ar  
    28    15    35 1   
    29    15    36 1   
    30    15    37 1   
    31    16    17 ar  
    32    17    18 ar  
    33    17    38 1   
    34    18    19 1   
    35    19    20 1   
    36    19    39 1   
    37    19    40 1   
    38    20    21 1   
    39    21    22 1   
    40    21    23 1   
    41    21    24 1   
@<TRIPOS>SUBSTRUCTURE
     1 9QJ         1 TEMP              0 ****  ****    0 ROOT
