@<TRIPOS>MOLECULE
molecule
   29    31     1     0     0
SMALL
bcc


@<TRIPOS>ATOM
      1 C8           0.0000     0.0000     0.0000 ca         1 9QK      -0.117000
      2 N           -0.0570    -0.0060     4.8120 nb         1 9QK      -0.720000
      3 O           -5.0140     0.1080     3.7250 o          1 9QK      -0.823300
      4 C1          -2.8460    -0.0080     4.8550 ca         1 9QK      -0.040600
      5 C10         -0.6520    -0.0070     6.0060 ca         1 9QK       0.410600
      6 C11          0.1030    -0.0090     7.1940 ca         1 9QK      -0.194300
      7 C12         -0.5320    -0.0110     8.3970 ca         1 9QK      -0.128000
      8 C13         -1.9240    -0.0130     8.4760 ca         1 9QK      -0.177000
      9 C14         -2.6880    -0.0120     7.3470 ca         1 9QK      -0.074000
     10 C15         -2.0670    -0.0080     6.0930 ca         1 9QK      -0.141300
     11 C2          -2.1410    -0.0050     3.6590 ca         1 9QK      -0.236300
     12 C3          -0.7390    -0.0050     3.6860 cp         1 9QK       0.468800
     13 C4           0.0020    -0.0030     2.4010 cp         1 9QK      -0.099500
     14 C5           1.3960    -0.0020     2.3990 ca         1 9QK      -0.137000
     15 C6           2.0810     0.0000     1.1970 ca         1 9QK       0.109900
     16 C7           1.3830     0.0000     0.0000 ca         1 9QK      -0.179000
     17 C9          -0.6930    -0.0020     1.1940 ca         1 9QK      -0.128000
     18 F            3.4310     0.0000     1.1910 f          1 9QK      -0.155900
     19 O1          -4.9160    -0.1140     5.9310 o          1 9QK      -0.823300
     20 H1          -0.5410     0.0000    -0.9390 ha         1 9QK       0.129000
     21 H3           1.1850    -0.0080     7.1500 ha         1 9QK       0.126000
     22 H4           0.0530    -0.0120     9.3090 ha         1 9QK       0.108000
     23 H5          -2.4040    -0.0140     9.4470 ha         1 9QK       0.115000
     24 H6          -3.7680    -0.0130     7.4200 ha         1 9QK       0.206000
     25 H7          -2.6700    -0.0050     2.7130 ha         1 9QK       0.162000
     26 H8           1.9410    -0.0020     3.3350 ha         1 9QK       0.167000
     27 H9           1.9230     0.0020    -0.9390 ha         1 9QK       0.129000
     28 H10         -1.7760    -0.0020     1.1920 ha         1 9QK       0.157000
     29 C           -4.3240    -0.0080     4.8750 c          1 9QK       0.886200
@<TRIPOS>BOND
     1     1    16 ar
     2     1    17 ar
     3    16    15 ar
     4    17    13 ar
     5    15    18 1
     6    15    14 ar
     7    13    14 ar
     8    13    12 1
     9    19    29 1
    10    11    12 ar
    11    11     4 ar
    12     3    29 1
    13    29     4 1
    14    12     2 ar
    15     4    10 ar
    16     2     5 ar
    17    10     5 ar
    18    10     9 ar
    19     5     6 ar
    20     9     8 ar
    21     6     7 ar
    22     8     7 ar
    23     1    20 1
    24     6    21 1
    25     7    22 1
    26     8    23 1
    27     9    24 1
    28    11    25 1
    29    14    26 1
    30    16    27 1
    31    17    28 1
@<TRIPOS>SUBSTRUCTURE
     1 9QK         1 TEMP              0 ****  ****    0 ROOT
