@<TRIPOS>MOLECULE
9QN
   54    57     1     0     0
SMALL
bcc


@<TRIPOS>ATOM
      1 CAO          0.0000     0.0000     0.0000 ca         1 9QN       0.005000
      2 CAP          1.3840     0.0000     0.0000 ca         1 9QN      -0.063600
      3 Cl1          2.2510     0.0020    -1.5040 cl         1 9QN      -0.002900
      4 CAQ          2.0760     0.0000     1.1970 ca         1 9QN      -0.047000
      5 CAR          1.3850    -0.0010     2.3950 ca         1 9QN      -0.063600
      6 Cl2          2.2520    -0.0010     3.8990 cl         1 9QN      -0.002900
      7 CAS          0.0010    -0.0010     2.3950 ca         1 9QN       0.005000
      8 CAN         -0.6900    -0.0000     1.1980 ca         1 9QN      -0.144500
      9 SAK         -2.4520     0.0060     1.1980 sy         1 9QN       1.050200
     10 OAL         -2.8510     0.5480     2.4500 o          1 9QN      -0.573300
     11 OAM         -2.8520     0.5550    -0.0500 o          1 9QN      -0.573300
     12 N           -2.9490    -1.5750     1.1930 n3         1 9QN      -0.507500
     13 CA          -3.1670    -2.2790    -0.0660 c3         1 9QN       0.153500
     14 C           -4.6470    -2.2330    -0.3810 c          1 9QN       0.594500
     15 O           -5.0290    -1.6300    -1.3690 o          1 9QN      -0.639500
     16 CB          -2.7570    -3.7430     0.0420 c3         1 9QN      -0.059400
     17 CAH         -1.8710    -4.0770     1.2130 c3         1 9QN      -0.011400
     18 CAI         -2.2330    -3.4660     2.5540 c3         1 9QN      -0.037400
     19 CAC         -3.1680    -2.2800     2.4490 c3         1 9QN       0.205500
     20 CAD         -4.6260    -2.6190     2.6970 c3         1 9QN      -0.087700
     21 CAW         -5.4520    -1.3330     2.7750 c3         1 9QN       0.211400
     22 OAX         -6.7980    -1.6520     3.1340 oh         1 9QN      -0.602800
     23 CAE         -5.1970    -3.5510     1.6370 c3         1 9QN       0.034000
     24 NAF         -5.5390    -2.8480     0.4030 n          1 9QN      -0.128800
     25 CAY         -6.9520    -2.8270    -0.0220 c3         1 9QN      -0.007300
     26 CAZ         -7.2260    -4.0140    -0.9110 ca         1 9QN       0.343600
     27 NBA         -6.9560    -3.9400    -2.1990 nb         1 9QN      -0.536000
     28 CBB         -7.1780    -4.9530    -3.0130 ca         1 9QN       0.399200
     29 CBC         -7.7080    -6.1380    -2.5390 ca         1 9QN      -0.222300
     30 CBD         -8.0050    -6.2530    -1.1900 ca         1 9QN      -0.075000
     31 CBE         -7.7520    -5.1690    -0.3640 ca         1 9QN      -0.214300
     32 H1          -0.5420     0.0010    -0.9380 ha         1 9QN       0.136000
     33 H2           3.1600    -0.0000     1.1970 ha         1 9QN       0.126000
     34 H3          -0.5410    -0.0020     3.3330 ha         1 9QN       0.136000
     35 H4          -2.6070    -1.7980    -0.8590 h1         1 9QN       0.067700
     36 H5          -3.6570    -4.3420     0.1170 hc         1 9QN       0.032700
     37 H6          -2.2340    -4.0160    -0.8670 hc         1 9QN       0.032700
     38 H7          -1.8700    -5.1540     1.3300 hc         1 9QN       0.011700
     39 H8          -0.8650    -3.7600     0.9670 hc         1 9QN       0.011700
     40 H9          -2.7080    -4.2270     3.1620 hc         1 9QN       0.019700
     41 H10         -1.3210    -3.1440     3.0430 hc         1 9QN       0.019700
     42 H11         -2.8800    -1.5940     3.2370 h1         1 9QN       0.045700
     43 H12         -4.6920    -3.1240     3.6530 hc         1 9QN       0.042700
     44 H13         -5.4430    -0.8380     1.8110 h1         1 9QN       0.013200
     45 H14         -5.0260    -0.6750     3.5230 h1         1 9QN       0.013200
     46 H15         -7.1340    -0.9900     3.7150 ho         1 9QN       0.396000
     47 H16         -6.0900    -4.0210     2.0300 h1         1 9QN       0.037700
     48 H17         -4.4630    -4.3150     1.4110 h1         1 9QN       0.037700
     49 H18         -7.5930    -2.8730     0.8500 h1         1 9QN       0.051700
     50 H19         -7.1510    -1.9130    -0.5690 h1         1 9QN       0.051700
     51 H20         -6.9430    -4.8550    -4.0660 h4         1 9QN      -0.018900
     52 H21         -7.8900    -6.9660    -3.2140 ha         1 9QN       0.112000
     53 H22         -8.4200    -7.1710    -0.7890 ha         1 9QN       0.107000
     54 H23         -7.9720    -5.2230     0.6950 ha         1 9QN       0.114000
@<TRIPOS>BOND
     1     1     2 ar  
     2     1     8 ar  
     3     1    32 1   
     4     2     3 1   
     5     2     4 ar  
     6     4     5 ar  
     7     4    33 1   
     8     5     6 1   
     9     5     7 ar  
    10     7     8 ar  
    11     7    34 1   
    12     8     9 1   
    13     9    10 2   
    14     9    11 2   
    15     9    12 1   
    16    12    13 1   
    17    12    19 1   
    18    13    14 1   
    19    13    16 1   
    20    13    35 1   
    21    14    15 2   
    22    14    24 1   
    23    16    17 1   
    24    16    36 1   
    25    16    37 1   
    26    17    18 1   
    27    17    38 1   
    28    17    39 1   
    29    18    19 1   
    30    18    40 1   
    31    18    41 1   
    32    19    20 1   
    33    19    42 1   
    34    20    21 1   
    35    20    23 1   
    36    20    43 1   
    37    21    22 1   
    38    21    44 1   
    39    21    45 1   
    40    22    46 1   
    41    23    24 1   
    42    23    47 1   
    43    23    48 1   
    44    24    25 1   
    45    25    26 1   
    46    25    49 1   
    47    25    50 1   
    48    26    27 ar  
    49    26    31 ar  
    50    27    28 ar  
    51    28    29 ar  
    52    28    51 1   
    53    29    30 ar  
    54    29    52 1   
    55    30    31 ar  
    56    30    53 1   
    57    31    54 1   
@<TRIPOS>SUBSTRUCTURE
     1 9QN         1 TEMP              0 ****  ****    0 ROOT
