@<TRIPOS>MOLECULE
molecule
   54    57     1     0     0
SMALL
bcc


@<TRIPOS>ATOM
      1 CAO          0.0000     0.0000     0.0000 ca         1 9QN      -0.024000
      2 CAP          1.3840     0.0000     0.0000 ca         1 9QN       0.011900
      3 Cl1          2.2510     0.0020    -1.5040 cl         1 9QN      -0.086400
      4 CAQ          2.0760     0.0000     1.1970 ca         1 9QN      -0.068000
      5 CAR          1.3850    -0.0010     2.3950 ca         1 9QN       0.011900
      6 Cl2          2.2520    -0.0010     3.8990 cl         1 9QN      -0.086400
      7 CAS          0.0010    -0.0010     2.3950 ca         1 9QN      -0.024000
      8 CAN         -0.6900    -0.0000     1.1980 ca         1 9QN      -0.298500
      9 SAK         -2.4520     0.0060     1.1980 sy         1 9QN       1.419200
     10 OAL         -2.8510     0.5480     2.4500 o          1 9QN      -0.618300
     11 OAM         -2.8520     0.5550    -0.0500 o          1 9QN      -0.618300
     12 N           -2.9490    -1.5750     1.1930 n3         1 9QN      -0.798500
     13 CA          -3.1670    -2.2790    -0.0660 c3         1 9QN       0.186500
     14 C           -4.6470    -2.2330    -0.3810 c          1 9QN       0.679500
     15 O           -5.0290    -1.6300    -1.3690 o          1 9QN      -0.602500
     16 CB          -2.7570    -3.7430     0.0420 c3         1 9QN      -0.098400
     17 CAH         -1.8710    -4.0770     1.2130 c3         1 9QN      -0.070400
     18 CAI         -2.2330    -3.4660     2.5540 c3         1 9QN      -0.087400
     19 CAC         -3.1680    -2.2800     2.4490 c3         1 9QN       0.246500
     20 CAD         -4.6260    -2.6190     2.6970 c3         1 9QN      -0.100700
     21 CAW         -5.4520    -1.3330     2.7750 c3         1 9QN       0.142400
     22 OAX         -6.7980    -1.6520     3.1340 oh         1 9QN      -0.619800
     23 CAE         -5.1970    -3.5510     1.6370 c3         1 9QN       0.111000
     24 NAF         -5.5390    -2.8480     0.4030 n          1 9QN      -0.473800
     25 CAY         -6.9520    -2.8270    -0.0220 c3         1 9QN       0.055700
     26 CAZ         -7.2260    -4.0140    -0.9110 ca         1 9QN       0.399600
     27 NBA         -6.9560    -3.9400    -2.1990 nb         1 9QN      -0.660000
     28 CBB         -7.1780    -4.9530    -3.0130 ca         1 9QN       0.419200
     29 CBC         -7.7080    -6.1380    -2.5390 ca         1 9QN      -0.256300
     30 CBD         -8.0050    -6.2530    -1.1900 ca         1 9QN      -0.098000
     31 CBE         -7.7520    -5.1690    -0.3640 ca         1 9QN      -0.247300
     32 H1          -0.5420     0.0010    -0.9380 ha         1 9QN       0.167000
     33 H2           3.1600    -0.0000     1.1970 ha         1 9QN       0.162000
     34 H3          -0.5410    -0.0020     3.3330 ha         1 9QN       0.167000
     35 H4          -2.6070    -1.7980    -0.8590 h1         1 9QN       0.099700
     36 H5          -3.6570    -4.3420     0.1170 hc         1 9QN       0.060200
     37 H6          -2.2340    -4.0160    -0.8670 hc         1 9QN       0.060200
     38 H7          -1.8700    -5.1540     1.3300 hc         1 9QN       0.043700
     39 H8          -0.8650    -3.7600     0.9670 hc         1 9QN       0.043700
     40 H9          -2.7080    -4.2270     3.1620 hc         1 9QN       0.049200
     41 H10         -1.3210    -3.1440     3.0430 hc         1 9QN       0.049200
     42 H11         -2.8800    -1.5940     3.2370 h1         1 9QN       0.065700
     43 H12         -4.6920    -3.1240     3.6530 hc         1 9QN       0.069700
     44 H13         -5.4430    -0.8380     1.8110 h1         1 9QN       0.045200
     45 H14         -5.0260    -0.6750     3.5230 h1         1 9QN       0.045200
     46 H15         -7.1340    -0.9900     3.7150 ho         1 9QN       0.408000
     47 H16         -6.0900    -4.0210     2.0300 h1         1 9QN       0.058200
     48 H17         -4.4630    -4.3150     1.4110 h1         1 9QN       0.058200
     49 H18         -7.5930    -2.8730     0.8500 h1         1 9QN       0.083200
     50 H19         -7.1510    -1.9130    -0.5690 h1         1 9QN       0.083200
     51 H20         -6.9430    -4.8550    -4.0660 h4         1 9QN       0.025100
     52 H21         -7.8900    -6.9660    -3.2140 ha         1 9QN       0.137000
     53 H22         -8.4200    -7.1710    -0.7890 ha         1 9QN       0.136000
     54 H23         -7.9720    -5.2230     0.6950 ha         1 9QN       0.136000
@<TRIPOS>BOND
     1    29    30 ar
     2    29    28 ar
     3    30    31 ar
     4     6     5 1
     5    28    27 ar
     6     4     5 ar
     7     4     2 ar
     8     3     2 1
     9     5     7 ar
    10    31    26 ar
    11     2     1 ar
    12    27    26 ar
    13    26    25 1
    14     7     8 ar
    15    22    21 1
    16     1     8 ar
    17     8     9 1
    18    23    24 1
    19    23    20 1
    20    25    24 1
    21    21    20 1
    22    24    14 1
    23    20    19 1
    24     9    12 1
    25     9    11 2
    26     9    10 2
    27    12    19 1
    28    12    13 1
    29    14    15 2
    30    14    13 1
    31    19    18 1
    32    13    16 1
    33    18    17 1
    34    16    17 1
    35     1    32 1
    36     4    33 1
    37     7    34 1
    38    13    35 1
    39    16    36 1
    40    16    37 1
    41    17    38 1
    42    17    39 1
    43    18    40 1
    44    18    41 1
    45    19    42 1
    46    20    43 1
    47    21    44 1
    48    21    45 1
    49    22    46 1
    50    23    47 1
    51    23    48 1
    52    25    49 1
    53    25    50 1
    54    28    51 1
    55    29    52 1
    56    30    53 1
    57    31    54 1
@<TRIPOS>SUBSTRUCTURE
     1 9QN         1 TEMP              0 ****  ****    0 ROOT
