@<TRIPOS>MOLECULE
molecule
   29    31     1     0     0
SMALL
bcc


@<TRIPOS>ATOM
      1 C1           0.0000     0.0000     0.0000 ca         1 9QT      -0.037600
      2 C2           1.3890     0.0000     0.0000 ca         1 9QT      -0.235300
      3 C3           2.0770     0.0000     1.2220 cp         1 9QT       0.465800
      4 C4           3.5600     0.0010     1.2080 cp         1 9QT      -0.087500
      5 C5           4.2480     0.0070    -0.0030 ca         1 9QT      -0.152000
      6 C6           5.6300     0.0140    -0.0110 ca         1 9QT       0.129900
      7 C7           6.3310     0.0130     1.1840 ca         1 9QT      -0.177000
      8 C8           5.6510     0.0070     2.3900 ca         1 9QT       0.038400
      9 C9           4.2700     0.0010     2.4080 ca         1 9QT      -0.108000
     10 C11         -0.5170    -0.0020     3.7280 ca         1 9QT      -0.194300
     11 C12         -1.8770    -0.0030     3.7920 ca         1 9QT      -0.127000
     12 C14         -2.0670    -0.0010     1.4020 ca         1 9QT      -0.073000
     13 N            1.4530    -0.0010     2.3810 nb         1 9QT      -0.718000
     14 C           -0.7680    -0.0060    -1.2630 c          1 9QT       0.884200
     15 O           -1.9790    -0.1100    -1.2370 o          1 9QT      -0.820800
     16 C10          0.1220    -0.0010     2.4740 ca         1 9QT       0.410600
     17 C13         -2.6510    -0.0030     2.6330 ca         1 9QT      -0.175000
     18 C15         -0.6710    -0.0000     1.2990 ca         1 9QT      -0.139300
     19 F            6.2980     0.0200    -1.1850 f          1 9QT      -0.143900
     20 O1          -0.1270     0.1040    -2.4420 o          1 9QT      -0.820800
     21 Cl           6.5370     0.0060     3.8840 cl         1 9QT      -0.125400
     22 H1           1.9300    -0.1490    -0.9260 ha         1 9QT       0.162000
     23 H2           3.7000     0.0080    -0.9380 ha         1 9QT       0.172000
     24 H3           7.4140     0.0180     1.1750 ha         1 9QT       0.144000
     25 H4           3.7400    -0.0030     3.3530 ha         1 9QT       0.171000
     26 H5           0.0700    -0.0010     4.6390 ha         1 9QT       0.127000
     27 H6          -2.3650    -0.0050     4.7590 ha         1 9QT       0.109000
     28 H7          -2.6790    -0.0010     0.5090 ha         1 9QT       0.207000
     29 H8          -3.7310    -0.0040     2.7130 ha         1 9QT       0.116000
@<TRIPOS>BOND
     1    19     6 1
     2     6     7 ar
     3     6     5 ar
     4     7     8 ar
     5     5     4 ar
     6     8    21 1
     7     8     9 ar
     8     4     9 ar
     9     4     3 1
    10    15    14 1
    11     2     3 ar
    12     2     1 ar
    13    14    20 1
    14    14     1 1
    15     3    13 ar
    16     1    18 ar
    17    13    16 ar
    18    18    16 ar
    19    18    12 ar
    20    16    10 ar
    21    12    17 ar
    22    10    11 ar
    23    17    11 ar
    24     2    22 1
    25     5    23 1
    26     7    24 1
    27     9    25 1
    28    10    26 1
    29    11    27 1
    30    12    28 1
    31    17    29 1
@<TRIPOS>SUBSTRUCTURE
     1 9QT         1 TEMP              0 ****  ****    0 ROOT
