@<TRIPOS>MOLECULE
molecule
   62    66     1     0     0
SMALL
bcc


@<TRIPOS>ATOM
      1 C1           0.0000     0.0000     0.0000 cc         1 9QW       0.254800
      2 C2           1.3650     0.0000     0.0000 cd         1 9QW      -0.238900
      3 C12          1.8030     0.0000     1.4430 c3         1 9QW       0.259300
      4 C13          2.6130    -1.2360     1.7390 ca         1 9QW      -0.091300
      5 C14          0.4950     0.0030     3.6390 cd         1 9QW      -0.027600
      6 C16          3.9820    -1.1420     1.9040 ca         1 9QW      -0.091000
      7 C17          4.7250    -2.2760     2.1770 ca         1 9QW      -0.129000
      8 C18          4.0980    -3.5040     2.2830 ca         1 9QW       0.032400
      9 C19          2.7280    -3.5980     2.1180 ca         1 9QW      -0.129000
     10 C20          1.9850    -2.4630     1.8510 ca         1 9QW      -0.091000
     11 C21          1.6620     0.1680     4.4170 c          1 9QW       0.682700
     12 C23          0.3810     0.0140     6.3840 cd         1 9QW      -0.022400
     13 C24         -0.7570    -0.1410     5.6690 cc         1 9QW      -0.046600
     14 C25         -0.7100    -0.1490     4.2680 cc         1 9QW      -0.094000
     15 C27          1.4070     0.8930    -4.2800 ca         1 9QW       0.526200
     16 C29          0.5780    -0.0020    -6.2340 ca         1 9QW       0.955300
     17 N3           1.7700    -0.0010    -1.2930 na         1 9QW      -0.136900
     18 C4           0.6460     0.0000    -2.0720 cd         1 9QW       0.480000
     19 N5          -0.4070    -0.0000    -1.2900 nc         1 9QW      -0.600000
     20 C6           3.1560     0.0000    -1.7690 c3         1 9QW       0.035000
     21 C7           3.9120     1.1710    -1.1380 c3         1 9QW      -0.111100
     22 C8           3.8310    -1.3150    -1.3750 c3         1 9QW      -0.111100
     23 C9           0.6210     0.0000    -3.5490 ca         1 9QW      -0.427100
     24 C10         -0.4740     0.0060     1.3930 c          1 9QW       0.642000
     25 N11          0.5710     0.0000     2.2400 n          1 9QW      -0.363000
     26 O15         -1.6430     0.0070     1.7290 o          1 9QW      -0.602500
     27 N22          1.5790     0.1700     5.7610 n          1 9QW      -0.304000
     28 Cl2          5.0310    -4.9280     2.6240 cl         1 9QW      -0.112400
     29 N28          1.3560     0.8610    -5.6010 nb         1 9QW      -0.840000
     30 N30         -0.1880    -0.8640    -5.5850 nb         1 9QW      -0.830000
     31 C31         -0.1970    -0.8990    -4.2590 ca         1 9QW       0.759600
     32 O32         -0.9780    -1.7860    -3.5990 os         1 9QW      -0.398100
     33 C33         -1.7790    -2.6630    -4.3940 c3         1 9QW       0.130700
     34 C35          2.7960     0.3360     6.5600 c3         1 9QW       0.088300
     35 O36          2.7450     0.3080     3.8710 o          1 9QW      -0.668500
     36 Cl3         -2.2770    -0.3330     6.4880 cl         1 9QW      -0.087400
     37 C38          1.3950     0.9560    -8.2460 c3         1 9QW       0.140700
     38 H1           2.3810     0.8910     1.6550 h1         1 9QW       0.098700
     39 H2           4.4730    -0.1800     1.8210 ha         1 9QW       0.145000
     40 H3           5.7980    -2.2020     2.3060 ha         1 9QW       0.145500
     41 H4           2.2370    -4.5600     2.2040 ha         1 9QW       0.145500
     42 H5           0.9120    -2.5370     1.7220 ha         1 9QW       0.145000
     43 H6           0.3360     0.0180     7.4670 h4         1 9QW       0.167000
     44 H7          -1.6180    -0.2750     3.6900 ha         1 9QW       0.202000
     45 H8           2.0470     1.6040    -3.7720 h4         1 9QW       0.037100
     46 H9           3.1680     0.1020    -2.8480 h1         1 9QW       0.076700
     47 H10          4.7100     1.4840    -1.8000 hc         1 9QW       0.053200
     48 H11          3.2290     1.9980    -0.9800 hc         1 9QW       0.053200
     49 H12          4.3300     0.8610    -0.1880 hc         1 9QW       0.053200
     50 H13          4.3150    -1.7480    -2.2420 hc         1 9QW       0.053200
     51 H14          3.0860    -2.0040    -0.9960 hc         1 9QW       0.053200
     52 H15          4.5710    -1.1250    -0.6060 hc         1 9QW       0.053200
     53 H16         -2.3510    -3.3160    -3.7460 h1         1 9QW       0.053367
     54 H17         -2.4550    -2.0790    -5.0060 h1         1 9QW       0.053367
     55 H18         -1.1370    -3.2580    -5.0320 h1         1 9QW       0.053367
     56 H19          3.4050    -0.5570     6.4800 h1         1 9QW       0.059700
     57 H20          2.5280     0.4980     7.5970 h1         1 9QW       0.059700
     58 H21          3.3550     1.1880     6.1940 h1         1 9QW       0.059700
     59 H22          1.1140     1.9560    -7.9370 h1         1 9QW       0.051700
     60 H23          2.4310     0.7750    -7.9870 h1         1 9QW       0.051700
     61 H24          1.2680     0.8610    -9.3180 h1         1 9QW       0.051700
     62 O34          0.5580     0.0010    -7.5880 os         1 9QW      -0.410100
@<TRIPOS>BOND
     1    36    13 1
     2    26    24 2
     3    13    14 1
     4    13    12 2
     5    14     5 2
     6    12    27 1
     7    24    25 1
     8    24     1 1
     9     5    25 1
    10     5    11 1
    11    27    11 1
    12    27    34 1
    13    25     3 1
    14    11    35 2
    15     1    19 1
    16     1     2 2
    17    19    18 2
    18    10     9 ar
    19    10     4 ar
    20     9     8 ar
    21    18    23 1
    22    18    17 1
    23     2     3 1
    24     2    17 1
    25    32    33 1
    26    32    31 1
    27     3     4 1
    28     4     6 ar
    29    23    31 ar
    30    23    15 ar
    31    31    30 ar
    32     8    28 1
    33     8     7 ar
    34    17    20 1
    35    15    29 ar
    36    30    16 ar
    37    29    16 ar
    38    16    62 1
    39     6     7 ar
    40    62    37 1
    41    22    20 1
    42    20    21 1
    43     3    38 1
    44     6    39 1
    45     7    40 1
    46     9    41 1
    47    10    42 1
    48    12    43 1
    49    14    44 1
    50    15    45 1
    51    20    46 1
    52    21    47 1
    53    21    48 1
    54    21    49 1
    55    22    50 1
    56    22    51 1
    57    22    52 1
    58    33    53 1
    59    33    54 1
    60    33    55 1
    61    34    56 1
    62    34    57 1
    63    34    58 1
    64    37    59 1
    65    37    60 1
    66    37    61 1
@<TRIPOS>SUBSTRUCTURE
     1 9QW         1 TEMP              0 ****  ****    0 ROOT
