@<TRIPOS>MOLECULE
molecule
   46    48     1     0     0
SMALL
bcc


@<TRIPOS>ATOM
      1 CAA          0.0000     0.0000     0.0000 c3         1 9QY       0.138700
      2 CAF          5.4300     6.4820    -3.7640 ca         1 9QY      -0.116000
      3 CAG          5.6810     5.3200    -3.0590 ca         1 9QY      -0.126000
      4 CAH          4.7610     7.5280    -3.1570 ca         1 9QY      -0.126000
      5 CAI          0.5380     5.7740     0.3990 cc         1 9QY       0.312200
      6 CAJ          5.2580     5.2010    -1.7480 ca         1 9QY      -0.109000
      7 CAK          4.3410     7.4120    -1.8450 ca         1 9QY      -0.109000
      8 CAL          1.6360     6.5540     0.4080 cd         1 9QY      -0.277600
      9 CAM          5.7090    -0.9160     1.2590 ca         1 9QY      -0.240000
     10 CAN          3.0760     3.2060     0.1530 c3         1 9QY      -0.091700
     11 CAO          3.2710     2.6060     1.5470 c3         1 9QY      -0.048100
     12 CAP          4.1250     6.1190     0.2870 c3         1 9QY       0.089600
     13 CAS          2.0630     0.0000     1.2020 c          1 9QY       0.664700
     14 CAT          4.5820     6.2450    -1.1430 ca         1 9QY      -0.120300
     15 CAU          6.2920     0.3310     1.4260 ca         1 9QY       0.165100
     16 CAV          4.3320    -1.0320     1.1830 ca         1 9QY       0.182100
     17 CAW          5.4970     1.4720     1.5190 ca         1 9QY      -0.024600
     18 CAX          2.2400     4.4560     0.2570 cc         1 9QY       0.401800
     19 CAY          4.1270     1.3690     1.4450 ca         1 9QY      -0.000300
     20 CAZ          3.5290     0.1150     1.2820 ca         1 9QY      -0.133600
     21 NAQ          0.9360     4.4970     0.3090 nd         1 9QY      -0.696000
     22 NBA          2.7160     5.7180     0.3150 na         1 9QY      -0.174900
     23 OAB          1.4050    -0.0960     2.2190 o          1 9QY      -0.534000
     24 OAD          3.7600    -2.2510     1.0130 oh         1 9QY      -0.494100
     25 OAR          1.4520     0.0000     0.0000 os         1 9QY      -0.415900
     26 Cl           6.2380     3.0270     1.7290 cl         1 9QY      -0.089400
     27 HAB         -0.3610    -0.9540     0.3640 h1         1 9QY       0.052700
     28 HAA         -0.3610     0.1620    -1.0080 h1         1 9QY       0.052700
     29 HAC         -0.3610     0.7920     0.6450 h1         1 9QY       0.052700
     30 HAG          6.2080     4.5010    -3.5340 ha         1 9QY       0.134000
     31 HAH          4.5680     8.4400    -3.7080 ha         1 9QY       0.134000
     32 HAI         -0.4870     6.1190     0.4580 h4         1 9QY       0.039100
     33 HAJ          5.4510     4.2890    -1.1970 ha         1 9QY       0.133000
     34 HAK          3.8140     8.2310    -1.3710 ha         1 9QY       0.133000
     35 HAL          1.6600     7.6350     0.4720 h4         1 9QY       0.170000
     36 HAM          6.3320    -1.7990     1.1850 ha         1 9QY       0.154000
     37 HAO          4.0420     3.4510    -0.2730 hc         1 9QY       0.070200
     38 HAN          2.5740     2.4870    -0.4830 hc         1 9QY       0.070200
     39 HAQ          2.3070     2.3440     1.9650 hc         1 9QY       0.075700
     40 HAP          3.7580     3.3310     2.1870 hc         1 9QY       0.075700
     41 HAR          4.7230     5.3710     0.7930 h1         1 9QY       0.069200
     42 HAS          4.2390     7.0720     0.7890 h1         1 9QY       0.069200
     43 HAD          4.1490    -2.8670     1.6120 ho         1 9QY       0.431000
     44 OAC          7.6430     0.4410     1.5010 oh         1 9QY      -0.505100
     45 HAF          5.7600     6.5740    -4.7910 ha         1 9QY       0.132000
     46 HAT          7.9430     0.0800     2.3180 ho         1 9QY       0.430000
@<TRIPOS>BOND
     1    44    15 1
     2    26    17 1
     3    15     9 ar
     4    15    17 ar
     5     9    16 ar
     6    17    19 ar
     7     7     4 ar
     8     7    14 ar
     9     4     2 ar
    10    12    14 1
    11    12    22 1
    12    16    24 1
    13    16    20 ar
    14    19    20 ar
    15    19    11 1
    16    14     6 ar
    17    10    11 1
    18    10    18 1
    19    22    18 1
    20    22     8 1
    21    20    13 1
    22     2     3 ar
    23    18    21 2
    24     8     5 2
    25     6     3 ar
    26    21     5 1
    27    13    25 1
    28    13    23 2
    29    25     1 1
    30     1    27 1
    31     1    28 1
    32     1    29 1
    33     2    45 1
    34     3    30 1
    35     4    31 1
    36     5    32 1
    37     6    33 1
    38     7    34 1
    39     8    35 1
    40     9    36 1
    41    10    37 1
    42    10    38 1
    43    11    39 1
    44    11    40 1
    45    12    41 1
    46    12    42 1
    47    44    46 1
    48    24    43 1
@<TRIPOS>SUBSTRUCTURE
     1 9QY         1 TEMP              0 ****  ****    0 ROOT
