@<TRIPOS>MOLECULE
molecule
   71    71     1     0     0
SMALL
bcc


@<TRIPOS>ATOM
      1 CAQ          0.0000     0.0000     0.0000 c3         1 9R2      -0.092100
      2 CAP          1.5300     0.0000     0.0000 c3         1 9R2      -0.084400
      3 CAO          2.0400     0.0000     1.4420 c3         1 9R2      -0.081400
      4 CAN          3.5700     0.0010     1.4410 c3         1 9R2      -0.082400
      5 CAM          4.0810     0.0010     2.8840 c3         1 9R2      -0.082400
      6 CAL          5.6100     0.0010     2.8840 c3         1 9R2      -0.082400
      7 CAK          6.1210     0.0020     4.3270 c3         1 9R2      -0.081400
      8 CAJ          7.6500     0.0020     4.3260 c3         1 9R2      -0.082400
      9 CAI          8.1610     0.0030     5.7680 c3         1 9R2      -0.082400
     10 CAH          9.6910     0.0030     5.7680 c3         1 9R2      -0.081400
     11 CAG         10.2010     0.0040     7.2110 c3         1 9R2      -0.082400
     12 CAF         11.7310     0.0040     7.2110 c3         1 9R2      -0.080400
     13 CAE         12.2410     0.0040     8.6530 c3         1 9R2      -0.084400
     14 CAD         13.7720     0.0040     8.6520 c3         1 9R2      -0.072400
     15 CAC         14.2820     0.0050    10.0950 c3         1 9R2      -0.126400
     16 CAB         15.7890     0.0050    10.0940 c          1 9R2       0.632100
     17 OAA         16.3930     0.0040     9.0480 o          1 9R2      -0.554000
     18 O6          16.4600     0.0050    11.2570 os         1 9R2      -0.422900
     19 C6          17.9090     0.0050    11.1810 c3         1 9R2       0.158400
     20 C5          18.4950     0.0060    12.5940 c3         1 9R2       0.143100
     21 O5          18.1530    -1.2160    13.2530 os         1 9R2      -0.399600
     22 C1          18.6300    -1.3090    14.5960 c3         1 9R2       0.321900
     23 O1          18.1000    -0.2280    15.3660 oh         1 9R2      -0.624800
     24 C2          20.1590    -1.2350    14.5980 c3         1 9R2       0.100100
     25 O2          20.6920    -2.3460    13.8730 oh         1 9R2      -0.576800
     26 C3          20.6010     0.0700    13.9310 c3         1 9R2       0.136100
     27 O3          22.0280     0.1140    13.8630 oh         1 9R2      -0.594800
     28 C4          20.0190     0.1320    12.5160 c3         1 9R2       0.117100
     29 O4          20.3640     1.3790    11.9110 oh         1 9R2      -0.605800
     30 HA6         -0.3610    -0.0000    -1.0210 hc         1 9R2       0.032367
     31 HA4         -0.3610    -0.8840     0.5110 hc         1 9R2       0.032367
     32 HA5         -0.3610     0.8850     0.5110 hc         1 9R2       0.032367
     33 HA2          1.8910     0.8840    -0.5110 hc         1 9R2       0.039700
     34 HA3          1.8910    -0.8840    -0.5110 hc         1 9R2       0.039700
     35 HA1          1.6800    -0.8850     1.9530 hc         1 9R2       0.040700
     36 HA0          1.6790     0.8840     1.9530 hc         1 9R2       0.040700
     37 HAZ          3.9300     0.8860     0.9310 hc         1 9R2       0.040700
     38 HAY          3.9320    -0.8830     0.9300 hc         1 9R2       0.040700
     39 HAX          3.7200     0.8860     3.3950 hc         1 9R2       0.040700
     40 HAW          3.7200    -0.8830     3.3950 hc         1 9R2       0.040700
     41 HAV          5.9710    -0.8830     2.3730 hc         1 9R2       0.040700
     42 HAU          5.9710     0.8860     2.3720 hc         1 9R2       0.040700
     43 HAT          5.7600    -0.8820     4.8380 hc         1 9R2       0.040700
     44 HAS          5.7600     0.8870     4.8370 hc         1 9R2       0.040700
     45 HAR          8.0110    -0.8820     3.8160 hc         1 9R2       0.041700
     46 HAQ          8.0110     0.8870     3.8150 hc         1 9R2       0.041700
     47 HAP          7.8000     0.8870     6.2780 hc         1 9R2       0.040700
     48 HAO          7.8000    -0.8820     6.2790 hc         1 9R2       0.040700
     49 HAN         10.0520     0.8870     5.2570 hc         1 9R2       0.041700
     50 HAM         10.0520    -0.8820     5.2580 hc         1 9R2       0.041700
     51 HAL          9.8400     0.8880     7.7210 hc         1 9R2       0.040700
     52 HAK          9.8400    -0.8810     7.7220 hc         1 9R2       0.040700
     53 HAJ         12.0920    -0.8810     6.7000 hc         1 9R2       0.043700
     54 HAI         12.0920     0.8880     6.7000 hc         1 9R2       0.043700
     55 HAH         11.8800     0.8880     9.1640 hc         1 9R2       0.040700
     56 HAG         11.8800    -0.8810     9.1640 hc         1 9R2       0.040700
     57 HAF         14.1330     0.8880     8.1410 hc         1 9R2       0.058700
     58 HAE         14.1330    -0.8810     8.1420 hc         1 9R2       0.058700
     59 HAD         13.9210     0.8900    10.6050 hc         1 9R2       0.071200
     60 HAC         13.9200    -0.8790    10.6060 hc         1 9R2       0.071200
     61 H61         18.2430     0.8890    10.6520 h1         1 9R2       0.065200
     62 H62         18.2430    -0.8800    10.6520 h1         1 9R2       0.065200
     63 H5          18.0940     0.8410    13.1560 h1         1 9R2       0.075700
     64 H11         18.3150    -2.2520    15.0250 h2         1 9R2       0.070700
     65 H12         17.5270    -0.5680    16.0320 ho         1 9R2       0.416000
     66 H21         20.5190    -1.2580    15.6190 h1         1 9R2       0.045700
     67 H22         20.9910    -3.0030    14.4790 ho         1 9R2       0.403000
     68 H31         20.2360     0.9110    14.5080 h1         1 9R2       0.066700
     69 H32         22.3500     0.7790    14.4490 ho         1 9R2       0.404000
     70 H41         20.4180    -0.6850    11.9260 h1         1 9R2       0.072700
     71 H42         21.0370     1.2400    11.2650 ho         1 9R2       0.415000
@<TRIPOS>BOND
     1     1     2 1
     2     2     3 1
     3     3     4 1
     4     4     5 1
     5     5     6 1
     6     6     7 1
     7     7     8 1
     8     8     9 1
     9     9    10 1
    10    10    11 1
    11    11    12 1
    12    12    13 1
    13    13    14 1
    14    14    15 1
    15    15    16 1
    16    16    17 2
    17    16    18 1
    18    25    24 1
    19    21    22 1
    20    21    20 1
    21    22    23 1
    22    22    24 1
    23    18    19 1
    24    24    26 1
    25    19    20 1
    26    20    28 1
    27    28    26 1
    28    28    29 1
    29    26    27 1
    30     1    30 1
    31     1    31 1
    32     1    32 1
    33     2    33 1
    34     2    34 1
    35     3    35 1
    36     3    36 1
    37     4    37 1
    38     4    38 1
    39     5    39 1
    40     5    40 1
    41     6    41 1
    42     6    42 1
    43     7    43 1
    44     7    44 1
    45     8    45 1
    46     8    46 1
    47     9    47 1
    48     9    48 1
    49    10    49 1
    50    10    50 1
    51    11    51 1
    52    11    52 1
    53    12    53 1
    54    12    54 1
    55    13    55 1
    56    13    56 1
    57    14    57 1
    58    14    58 1
    59    15    59 1
    60    15    60 1
    61    19    61 1
    62    19    62 1
    63    20    63 1
    64    22    64 1
    65    23    65 1
    66    24    66 1
    67    25    67 1
    68    26    68 1
    69    27    69 1
    70    28    70 1
    71    29    71 1
@<TRIPOS>SUBSTRUCTURE
     1 9R2         1 TEMP              0 ****  ****    0 ROOT
