@<TRIPOS>MOLECULE
9R5
   24    25     1     0     0
SMALL
bcc


@<TRIPOS>ATOM
      1 C1           0.0000     0.0000     0.0000 ca         1 9R5      -0.083000
      2 C2           1.3840     0.0000     0.0000 ca         1 9R5      -0.025600
      3 C3           2.0770     0.0000     1.1970 ca         1 9R5      -0.085000
      4 C4          -0.6930     0.0070     1.1960 ca         1 9R5      -0.077000
      5 C5          -0.0030     0.0140     2.3990 ca         1 9R5       0.036100
      6 C6           1.3880     0.0000     2.3990 ca         1 9R5       0.080100
      7 C12         -0.7930     0.0660     5.9870 c3         1 9R5      -0.045200
      8 O7           2.0840    -0.0020     3.5690 os         1 9R5      -0.271900
      9 C8           1.3680     0.3950     4.7440 c3         1 9R5       0.197400
     10 C9           0.0170    -0.3340     4.7510 c3         1 9R5       0.114100
     11 O10         -0.6990     0.0270     3.5690 os         1 9R5      -0.330900
     12 Cl           2.2500    -0.0020    -1.5050 cl         1 9R5       0.030600
     13 N13         -2.0340    -0.7170     6.0330 nz         1 9R5       0.092400
     14 H1          -0.5410    -0.0000    -0.9380 ha         1 9R5       0.131000
     15 H2           3.1600    -0.0000     1.1940 ha         1 9R5       0.139000
     16 H3          -1.7760     0.0070     1.1940 ha         1 9R5       0.116000
     17 H4          -0.2100    -0.1280     6.8790 hx         1 9R5       0.092200
     18 H5          -1.0330     1.1210     5.9350 hx         1 9R5       0.092200
     19 H6           1.9340     0.1200     5.6260 h1         1 9R5       0.036700
     20 H7           1.2040     1.4650     4.7270 h1         1 9R5       0.036700
     21 H8           0.1860    -1.4040     4.7560 h1         1 9R5       0.044700
     22 H9          -1.8240    -1.6840     5.8840 hn         1 9R5       0.227133
     23 H10         -2.6580    -0.3970     5.3190 hn         1 9R5       0.227133
     24 H133        -2.4660    -0.6050     6.9290 hn         1 9R5       0.227133
@<TRIPOS>BOND
     1     1     2 ar  
     2     1     4 ar  
     3     1    14 1   
     4     2     3 ar  
     5     2    12 1   
     6     3     6 ar  
     7     3    15 1   
     8     4     5 ar  
     9     4    16 1   
    10     5     6 ar  
    11     5    11 1   
    12     6     8 1   
    13     7    10 1   
    14     7    13 1   
    15     7    17 1   
    16     7    18 1   
    17     8     9 1   
    18     9    10 1   
    19     9    19 1   
    20     9    20 1   
    21    10    11 1   
    22    10    21 1   
    23    13    22 1   
    24    13    23 1   
    25    13    24 1   
@<TRIPOS>SUBSTRUCTURE
     1 9R5         1 TEMP              0 ****  ****    0 ROOT
