@<TRIPOS>MOLECULE
molecule
   62    66     1     0     0
SMALL
bcc


@<TRIPOS>ATOM
      1 C1           0.0000     0.0000     0.0000 ca         1 9R8      -0.244600
      2 C2           1.4090     0.0000     0.0000 ca         1 9R8       0.226100
      3 C3           2.1050     0.0000     1.1890 ca         1 9R8      -0.272000
      4 O5           2.0840     0.0000    -1.1770 oh         1 9R8      -0.467100
      5 C8           0.0060     0.0010     2.4070 ca         1 9R8      -0.285900
      6 C9           1.4170     0.0000     2.4010 ca         1 9R8       0.035800
      7 C12         -0.3980     0.0010     3.8110 cc         1 9R8       0.393900
      8 C13         -1.8120    -0.0000     4.3300 c3         1 9R8      -0.041400
      9 C14         -2.2830    -1.4210     4.5030 ca         1 9R8      -0.078300
     10 C15         -2.9070    -2.0740     3.4560 ca         1 9R8      -0.131000
     11 C16         -3.1480    -4.0270     4.8210 ca         1 9R8      -0.125000
     12 C19         -2.0880    -2.0720     5.7070 ca         1 9R8      -0.112000
     13 C21         -2.4850    -0.4840    -5.0130 ca         1 9R8      -0.161500
     14 C22         -1.8840    -0.3500    -3.7770 ca         1 9R8      -0.094000
     15 C24         -1.5990    -2.7340    -3.6530 ca         1 9R8      -0.094000
     16 N29         -3.2940    -1.8830    -6.9080 nh         1 9R8      -0.583000
     17 C30         -2.7520    -0.9190    -7.8090 c3         1 9R8       0.125300
     18 C31         -3.1630     0.5030    -7.4430 c3         1 9R8       0.068900
     19 C33         -5.1140    -0.3280    -6.4030 c3         1 9R8       0.068900
     20 C34         -4.7040    -1.7520    -6.7680 c3         1 9R8       0.125300
     21 C4          -0.6970    -0.0010     1.2020 ca         1 9R8      -0.011000
     22 C6          -0.7360     0.0060    -1.2780 c          1 9R8       0.644700
     23 O7          -0.2780     0.5910    -2.2400 o          1 9R8      -0.562100
     24 N10          1.8150     0.0000     3.7110 na         1 9R8      -0.051100
     25 N11          0.6860     0.0010     4.5350 nd         1 9R8      -0.503100
     26 C17         -2.5200    -3.3760     5.8650 ca         1 9R8      -0.080300
     27 C18         -3.3340    -3.3800     3.6140 ca         1 9R8      -0.124000
     28 C23         -1.4390    -1.4780    -3.0940 ca         1 9R8       0.053600
     29 C25         -2.6450    -1.7400    -5.5730 ca         1 9R8       0.069600
     30 C26         -2.2080    -2.8700    -4.9070 ca         1 9R8      -0.161500
     31 N27         -1.9150    -0.6380    -1.3790 n          1 9R8      -0.377000
     32 C28         -2.5380    -1.2180    -0.1870 c3         1 9R8       0.034300
     33 O32         -4.5730     0.6330    -7.3040 os         1 9R8      -0.404600
     34 H1           3.1880    -0.0000     1.1820 ha         1 9R8       0.136000
     35 H2           2.9200    -0.4180    -1.0600 ho         1 9R8       0.419000
     36 H3          -2.4970     0.1880     3.5110 hc         1 9R8       0.068700
     37 H4          -1.9230     0.7760     5.0780 hc         1 9R8       0.068700
     38 H5          -3.0560    -1.5650     2.5120 ha         1 9R8       0.123000
     39 H6          -3.4870    -5.0490     4.9450 ha         1 9R8       0.131000
     40 H7          -1.5960    -1.5610     6.5250 ha         1 9R8       0.140000
     41 H8          -2.8260    -5.0370     7.1610 hc         1 9R8       0.044367
     42 H9          -2.7190    -3.4740     7.9830 hc         1 9R8       0.044367
     43 H10         -1.2570    -4.2400     7.3460 hc         1 9R8       0.044367
     44 H11         -2.8310     0.3940    -5.5450 ha         1 9R8       0.169500
     45 H12         -1.7590     0.6330    -3.3400 ha         1 9R8       0.168500
     46 H13         -1.2530    -3.6120    -3.1210 ha         1 9R8       0.168500
     47 H14         -3.1040    -1.1390    -8.8100 h1         1 9R8       0.067450
     48 H15         -1.6710    -0.9880    -7.7880 h1         1 9R8       0.067450
     49 H16         -2.8240     1.1760    -8.2210 h1         1 9R8       0.061700
     50 H17         -2.6910     0.7730    -6.5060 h1         1 9R8       0.061700
     51 H18         -6.1950    -0.2590    -6.4240 h1         1 9R8       0.061700
     52 H19         -4.7620    -0.1080    -5.4020 h1         1 9R8       0.061700
     53 H20         -5.1760    -2.0220    -7.7050 h1         1 9R8       0.067450
     54 H21         -5.0440    -2.4250    -5.9900 h1         1 9R8       0.067450
     55 H22         -1.7810    -0.0010     1.2000 ha         1 9R8       0.151000
     56 H23          2.7610     0.0000     4.0370 hn         1 9R8       0.333700
     57 H24         -3.8220    -3.8920     2.7940 ha         1 9R8       0.129000
     58 H25         -2.3330    -3.8530    -5.3440 ha         1 9R8       0.169500
     59 H26         -3.0840    -0.4490     0.3460 h1         1 9R8       0.048033
     60 H27         -3.2200    -2.0060    -0.4820 h1         1 9R8       0.048033
     61 H28         -1.7700    -1.6290     0.4580 h1         1 9R8       0.048033
     62 C20         -2.3160    -4.0810     7.1810 c3         1 9R8      -0.048800
@<TRIPOS>BOND
     1    32    31 1
     2    23    22 2
     3    31    22 1
     4    31    28 1
     5    22     1 1
     6    27    11 ar
     7    27    10 ar
     8    15    28 ar
     9    15    30 ar
    10    11    26 ar
    11    28    14 ar
    12     1    21 ar
    13     1     2 ar
    14    30    29 ar
    15    10     9 ar
    16     4     2 1
    17    26    62 1
    18    26    12 ar
    19    21     5 ar
    20    14    13 ar
    21     2     3 ar
    22     9    12 ar
    23     9     8 1
    24    29    13 ar
    25    29    16 1
    26     5     6 ar
    27     5     7 1
    28     3     6 ar
    29    16    20 1
    30    16    17 1
    31    20    19 1
    32     8     7 1
    33     6    24 1
    34     7    25 2
    35    19    33 1
    36    17    18 1
    37    24    25 1
    38    33    18 1
    39     3    34 1
    40     4    35 1
    41     8    36 1
    42     8    37 1
    43    10    38 1
    44    11    39 1
    45    12    40 1
    46    62    41 1
    47    62    42 1
    48    62    43 1
    49    13    44 1
    50    14    45 1
    51    15    46 1
    52    17    47 1
    53    17    48 1
    54    18    49 1
    55    18    50 1
    56    19    51 1
    57    19    52 1
    58    20    53 1
    59    20    54 1
    60    21    55 1
    61    24    56 1
    62    27    57 1
    63    30    58 1
    64    32    59 1
    65    32    60 1
    66    32    61 1
@<TRIPOS>SUBSTRUCTURE
     1 9R8         1 TEMP              0 ****  ****    0 ROOT
