@<TRIPOS>MOLECULE
molecule
   32    34     1     0     0
SMALL
bcc


@<TRIPOS>ATOM
      1 CAK          0.0000     0.0000     0.0000 c3         1 9R9      -0.082400
      2 CAL          1.5300     0.0000     0.0000 c3         1 9R9      -0.078900
      3 CAM          2.0400     0.0000     1.4430 c3         1 9R9      -0.080400
      4 CAN          1.5280     1.2490     2.1650 c3         1 9R9      -0.078900
      5 CAO         -0.0020     1.2480     2.1640 c3         1 9R9      -0.082400
      6 CAJ         -0.5110     1.2480     0.7220 c3         1 9R9       0.200100
      7 OAP         -0.0340     2.4150     0.0480 oh         1 9R9      -0.595800
      8 CAF         -2.0180     1.2490     0.7200 ca         1 9R9      -0.030300
      9 CAE         -2.7190     0.2000     1.3250 ca         1 9R9      -0.247900
     10 CAI         -2.3180    -1.0160     2.0260 cc         1 9R9       0.373800
     11 NAH         -3.4020    -1.6430     2.3880 nd         1 9R9      -0.493100
     12 NAG         -4.5300    -0.9280     1.9750 na         1 9R9      -0.050100
     13 CAD         -4.1280     0.2070     1.3200 ca         1 9R9      -0.011200
     14 CAC         -4.8050     1.2610     0.7130 ca         1 9R9      -0.156000
     15 CAB         -4.0930     2.2830     0.1250 ca         1 9R9       0.073400
     16 ClA         -4.9380     3.5960    -0.6330 cl         1 9R9      -0.101400
     17 CAA         -2.7020     2.2740     0.1360 ca         1 9R9      -0.157000
     18 H1          -0.3600     0.0030    -1.0220 hc         1 9R9       0.052700
     19 H2          -0.3600    -0.8840     0.5120 hc         1 9R9       0.052700
     20 H3           1.8900    -0.8860    -0.5090 hc         1 9R9       0.049450
     21 H4           1.8900     0.8860    -0.5090 hc         1 9R9       0.049450
     22 H5           3.1230     0.0040     1.4420 hc         1 9R9       0.039700
     23 H6           1.6770    -0.8840     1.9530 hc         1 9R9       0.039700
     24 H7           1.8880     2.1330     1.6530 hc         1 9R9       0.049450
     25 H8           1.8870     1.2460     3.1870 hc         1 9R9       0.049450
     26 H9          -0.3620     2.1340     2.6730 hc         1 9R9       0.052700
     27 H10         -0.3620     0.3620     2.6720 hc         1 9R9       0.052700
     28 H11         -0.2070     2.3380    -0.8750 ho         1 9R9       0.405000
     29 H12         -1.3010    -1.3390     2.2120 h4         1 9R9       0.067800
     30 H14         -5.8840     1.2310     0.6220 ha         1 9R9       0.145000
     31 H15         -2.1570     3.0860    -0.3310 ha         1 9R9       0.157000
     32 H13         -5.4800    -1.2010     2.1330 hn         1 9R9       0.334700
@<TRIPOS>BOND
     1     7     6 1
     2     2     3 1
     3     2     1 1
     4     4     3 1
     5     4     5 1
     6     1     6 1
     7     6     5 1
     8     6     8 1
     9    17     8 ar
    10    17    15 ar
    11     8     9 ar
    12    16    15 1
    13    15    14 ar
    14     9    10 1
    15     9    13 ar
    16    10    11 2
    17    14    13 ar
    18    13    12 1
    19    11    12 1
    20     1    18 1
    21     1    19 1
    22     2    20 1
    23     2    21 1
    24     3    22 1
    25     3    23 1
    26     4    24 1
    27     4    25 1
    28     5    26 1
    29     5    27 1
    30     7    28 1
    31    10    29 1
    32    14    30 1
    33    17    31 1
    34    12    32 1
@<TRIPOS>SUBSTRUCTURE
     1 9R9         1 TEMP              0 ****  ****    0 ROOT
