@<TRIPOS>MOLECULE
9RA
   53    55     1     0     0
SMALL
bcc


@<TRIPOS>ATOM
      1 O53         1.1160    1.0930    0.7490 o         1 9RA     -0.829800
      2 C51         2.0800    0.3190    0.4900 c         1 9RA      0.906200
      3 O52         2.6940   -0.3660    1.3560 o         1 9RA     -0.829800
      4 C11         2.5330    0.2050   -0.9590 ca        1 9RA     -0.111600
      5 C10         1.9050    0.9520   -1.9610 ca        1 9RA     -0.115500
      6 C12         3.5860   -0.6470   -1.3070 ca        1 9RA     -0.115500
      7 C13         4.0030   -0.7550   -2.6310 ca        1 9RA     -0.141000
      8 C14         3.3730   -0.0060   -3.6370 ca        1 9RA     -0.103800
      9 C9          2.3200    0.8520   -3.2860 ca        1 9RA     -0.141000
     10 C47         3.7970   -0.1370   -5.0320 ce        1 9RA      0.019600
     11 C48         4.2000   -1.3060   -5.5530 c2        1 9RA     -0.240000
     12 C4          3.7460    1.0720   -5.8730 ca        1 9RA     -0.040800
     13 C3          4.6630    2.1250   -5.7060 ca        1 9RA     -0.051300
     14 C43         5.7110    2.0700   -4.6610 c3        1 9RA     -0.059800
     15 C2          4.5790    3.2320   -6.5520 ca        1 9RA     -0.138000
     16 C5          2.7710    1.1710   -6.8670 ca        1 9RA     -0.119000
     17 C6          2.6740    2.2920   -7.7030 ca        1 9RA     -0.073300
     18 C19         1.5650    2.3240   -8.7210 c3        1 9RA     -0.001700
     19 C27         0.2360    1.9410   -8.0720 c3        1 9RA     -0.084100
     20 C31         1.8710    1.3230   -9.8320 c3        1 9RA     -0.084100
     21 C20         1.3980    3.7230   -9.3150 c3        1 9RA     -0.068400
     22 C21         2.7200    4.3600   -9.6630 c3        1 9RA     -0.067400
     23 C22         3.6120    4.5530   -8.4350 c3        1 9RA     -0.001700
     24 C1          3.6090    3.3280   -7.5600 ca        1 9RA     -0.065300
     25 C39         5.0250    4.8450   -8.9390 c3        1 9RA     -0.083600
     26 C35         3.1260    5.7510   -7.6250 c3        1 9RA     -0.083600
     27 H10         1.0760    1.6180   -1.6720 ha        1 9RA      0.152500
     28 H12         4.0740   -1.2260   -0.5060 ha        1 9RA      0.152500
     29 H13         4.8340   -1.4250   -2.8920 ha        1 9RA      0.111500
     30 H9          1.8230    1.4440   -4.0670 ha        1 9RA      0.111500
     31 H48         4.2350   -2.2260   -4.9570 ha        1 9RA      0.109000
     32 H48A        4.5160   -1.4030   -6.5980 ha        1 9RA      0.109000
     33 H43         6.5530    1.4150   -4.9990 hc        1 9RA      0.050033
     34 H43A        6.1200    3.0870   -4.4450 hc        1 9RA      0.050033
     35 H43B        5.2930    1.6420   -3.7130 hc        1 9RA      0.050033
     36 H2          5.2950    4.0560   -6.4140 ha        1 9RA      0.125000
     37 H5          2.0570    0.3400   -6.9860 ha        1 9RA      0.135000
     38 H27         0.2110    0.8530   -7.8240 hc        1 9RA      0.034867
     39 H27A       -0.6050    2.1590   -8.7730 hc        1 9RA      0.034867
     40 H27B        0.0810    2.5230   -7.1320 hc        1 9RA      0.034867
     41 H31         2.0000    0.3010   -9.4010 hc        1 9RA      0.034867
     42 H31A        1.0320    1.2980  -10.5680 hc        1 9RA      0.034867
     43 H31B        2.8090    1.6030  -10.3660 hc        1 9RA      0.034867
     44 H20         0.8530    4.3700   -8.5780 hc        1 9RA      0.039200
     45 H20A        0.7620    3.6550  -10.2370 hc        1 9RA      0.039200
     46 H21         2.5400    5.3580  -10.1430 hc        1 9RA      0.036700
     47 H21A        3.2600    3.7200  -10.4110 hc        1 9RA      0.036700
     48 H39         5.4840    3.9210   -9.3640 hc        1 9RA      0.034200
     49 H39A        5.6740    5.2170   -8.1110 hc        1 9RA      0.034200
     50 H39B        4.9890    5.6280   -9.7340 hc        1 9RA      0.034200
     51 H35         3.7730    5.8930   -6.7260 hc        1 9RA      0.034200
     52 H35A        2.0760    5.5930   -7.2820 hc        1 9RA      0.034200
     53 H35B        3.1670    6.6770   -8.2470 hc        1 9RA      0.034200
@<TRIPOS>BOND
     1    1    2 1   
     2    2    3 1   
     3    2    4 1   
     4    4    5 ar  
     5    4    6 ar  
     6    5    9 ar  
     7    5   27 1   
     8    6    7 ar  
     9    6   28 1   
    10    7    8 ar  
    11    7   29 1   
    12    8    9 ar  
    13    8   10 1   
    14    9   30 1   
    15   10   11 2   
    16   10   12 1   
    17   11   31 1   
    18   11   32 1   
    19   12   13 ar  
    20   12   16 ar  
    21   13   14 1   
    22   13   15 ar  
    23   14   33 1   
    24   14   34 1   
    25   14   35 1   
    26   15   24 ar  
    27   15   36 1   
    28   16   17 ar  
    29   16   37 1   
    30   17   18 1   
    31   17   24 ar  
    32   18   19 1   
    33   18   20 1   
    34   18   21 1   
    35   19   38 1   
    36   19   39 1   
    37   19   40 1   
    38   20   41 1   
    39   20   42 1   
    40   20   43 1   
    41   21   22 1   
    42   21   44 1   
    43   21   45 1   
    44   22   23 1   
    45   22   46 1   
    46   22   47 1   
    47   23   24 1   
    48   23   25 1   
    49   23   26 1   
    50   25   48 1   
    51   25   49 1   
    52   25   50 1   
    53   26   51 1   
    54   26   52 1   
    55   26   53 1   
@<TRIPOS>SUBSTRUCTURE
     1 9RA         1 TEMP              0 ****  ****    0 ROOT
