@<TRIPOS>MOLECULE
molecule
   53    55     1     0     0
SMALL
bcc


@<TRIPOS>ATOM
      1 O53          0.0000     0.0000     0.0000 o          1 9RA      -0.837300
      2 C51          1.2150     0.0000     0.0000 c          1 9RA       0.881200
      3 O52          1.8880     0.0000     1.1660 o          1 9RA      -0.837300
      4 C11          1.9530    -0.0070    -1.2790 ca         1 9RA      -0.095600
      5 C10          1.2550    -0.0130    -2.4890 ca         1 9RA      -0.103500
      6 C12          3.3500    -0.0010    -1.2790 ca         1 9RA      -0.103500
      7 C13          4.0370    -0.0060    -2.4710 ca         1 9RA      -0.144000
      8 C14          3.3390    -0.0180    -3.6790 ca         1 9RA      -0.091800
      9 C9           1.9440    -0.0180    -3.6810 ca         1 9RA      -0.144000
     10 C47          4.0800    -0.0230    -4.9620 ce         1 9RA       0.006600
     11 C48          4.8450    -1.0720    -5.2910 c2         1 9RA      -0.232000
     12 C4           3.9750     1.1350    -5.8840 ca         1 9RA      -0.035800
     13 C3           5.0300     2.0400    -5.9960 ca         1 9RA      -0.070300
     14 C43          6.2850     1.8470    -5.1840 c3         1 9RA      -0.045800
     15 C2           4.9190     3.1120    -6.8530 ca         1 9RA      -0.133000
     16 C5           2.8280     1.3210    -6.6470 ca         1 9RA      -0.107000
     17 C6           2.7250     2.4030    -7.5100 ca         1 9RA      -0.071300
     18 C19          1.4600     2.5360    -8.3160 c3         1 9RA      -0.015700
     19 C27          0.2580     2.2200    -7.4240 c3         1 9RA      -0.081600
     20 C31          1.4980     1.5460    -9.4810 c3         1 9RA      -0.081600
     21 C20          1.3210     3.9540    -8.8650 c3         1 9RA      -0.071400
     22 C21          2.6270     4.3300    -9.5740 c3         1 9RA      -0.070400
     23 C22          3.7160     4.5010    -8.5180 c3         1 9RA      -0.016700
     24 C1           3.7670     3.3010    -7.6090 ca         1 9RA      -0.069300
     25 C39          5.0700     4.6660    -9.2110 c3         1 9RA      -0.080600
     26 C35          3.4190     5.7510    -7.6870 c3         1 9RA      -0.080600
     27 H10          0.1710    -0.0130    -2.4890 ha         1 9RA       0.150500
     28 H12          3.8920     0.0080    -0.3410 ha         1 9RA       0.150500
     29 H13          5.1200    -0.0040    -2.4710 ha         1 9RA       0.107000
     30 H9           1.4030    -0.0250    -4.6190 ha         1 9RA       0.107000
     31 H48          5.3860    -1.0750    -6.2290 ha         1 9RA       0.112500
     32 H48A         4.9220    -1.9180    -4.6180 ha         1 9RA       0.112500
     33 H43          6.0590     1.9810    -4.1330 hc         1 9RA       0.043367
     34 H43A         7.0280     2.5740    -5.4890 hc         1 9RA       0.043367
     35 H43B         6.6700     0.8480    -5.3450 hc         1 9RA       0.043367
     36 H2           5.7380     3.8150    -6.9410 ha         1 9RA       0.125000
     37 H5           2.0100     0.6150    -6.5700 ha         1 9RA       0.140000
     38 H27          0.2190     1.1540    -7.2340 hc         1 9RA       0.036367
     39 H27A        -0.6530     2.5320    -7.9220 hc         1 9RA       0.036367
     40 H27B         0.3550     2.7510    -6.4850 hc         1 9RA       0.036367
     41 H31          2.5180     1.4350    -9.8280 hc         1 9RA       0.036367
     42 H31A         0.8800     1.9160   -10.2900 hc         1 9RA       0.036367
     43 H31B         1.1230     0.5850    -9.1510 hc         1 9RA       0.036367
     44 H20          0.5000     3.9910    -9.5720 hc         1 9RA       0.043700
     45 H20A         1.1380     4.6430    -8.0500 hc         1 9RA       0.043700
     46 H21          2.9080     3.5260   -10.2440 hc         1 9RA       0.042700
     47 H21A         2.4880     5.2700   -10.0940 hc         1 9RA       0.042700
     48 H39          5.7930     5.0540    -8.5040 hc         1 9RA       0.034533
     49 H39A         5.4060     3.7050    -9.5810 hc         1 9RA       0.034533
     50 H39B         4.9690     5.3560   -10.0400 hc         1 9RA       0.034533
     51 H35          4.3460     6.1520    -7.2950 hc         1 9RA       0.034533
     52 H35A         2.7630     5.4910    -6.8660 hc         1 9RA       0.034533
     53 H35B         2.9400     6.4940    -8.3120 hc         1 9RA       0.034533
@<TRIPOS>BOND
     1     2     1 1
     2     4     2 1
     3     2     3 1
     4     6     4 ar
     5     5     4 ar
     6     9     5 ar
     7     5    27 1
     8     7     6 ar
     9     6    28 1
    10     8     7 ar
    11     7    29 1
    12    10     8 1
    13     8     9 ar
    14     9    30 1
    15    11    10 2
    16    12    10 1
    17    11    31 1
    18    11    32 1
    19    16    12 ar
    20    12    13 ar
    21    15    13 ar
    22    13    14 1
    23    14    33 1
    24    14    34 1
    25    14    35 1
    26    24    15 ar
    27    15    36 1
    28    17    16 ar
    29    16    37 1
    30    18    17 1
    31    17    24 ar
    32    20    18 1
    33    21    18 1
    34    18    19 1
    35    19    38 1
    36    19    39 1
    37    19    40 1
    38    20    41 1
    39    20    42 1
    40    20    43 1
    41    21    22 1
    42    21    44 1
    43    21    45 1
    44    23    22 1
    45    22    46 1
    46    22    47 1
    47    25    23 1
    48    23    24 1
    49    23    26 1
    50    25    48 1
    51    25    49 1
    52    25    50 1
    53    26    51 1
    54    26    52 1
    55    26    53 1
@<TRIPOS>SUBSTRUCTURE
     1 9RA         1 TEMP              0 ****  ****    0 ROOT
