@<TRIPOS>MOLECULE
molecule
   39    40     1     0     0
SMALL
bcc


@<TRIPOS>ATOM
      1 C1           0.0000     0.0000     0.0000 cc         1 9RB      -0.002600
      2 C2           1.3820     0.0000     0.0000 cd         1 9RB      -0.126900
      3 C3           4.2860     0.0010    -2.0520 ca         1 9RB       0.134400
      4 C4           3.7260     0.0060    -3.3350 ca         1 9RB      -0.114500
      5 C5           4.5360     0.0110    -4.4340 ca         1 9RB      -0.110000
      6 C6           5.9270     0.0120    -4.2770 ca         1 9RB      -0.079800
      7 C7           6.8000     0.0170    -5.4600 ce         1 9RB      -0.012200
      8 C8           8.1400     0.0180    -5.3090 cf         1 9RB      -0.255200
      9 C9           9.0100     0.0250    -6.4870 c          1 9RB       0.679300
     10 C10          6.4870     0.0070    -2.9940 ca         1 9RB      -0.110000
     11 C11          5.6760     0.0020    -1.8950 ca         1 9RB      -0.114500
     12 C12          1.8000     0.0000     1.3510 cd         1 9RB       0.370600
     13 C13         -0.8920    -0.0010    -1.2140 c3         1 9RB      -0.032800
     14 C14          3.2260     0.0020     1.8370 c3         1 9RB      -0.104400
     15 O            8.5230     0.0290    -7.6030 o          1 9RB      -0.584100
     16 N3          10.3500     0.0250    -6.3360 ns         1 9RB      -0.469400
     17 O1          11.1900     0.0310    -7.4760 oh         1 9RB      -0.361100
     18 N2           3.4740     0.0010    -0.9540 ne         1 9RB      -0.270400
     19 N1           2.1920     0.0000    -1.0970 nf         1 9RB      -0.166400
     20 N4           0.7340     0.0000     2.1030 nc         1 9RB      -0.520800
     21 N           -0.4010    -0.0070     1.2840 na         1 9RB       0.083400
     22 C           -1.7910    -0.0090     1.7460 c3         1 9RB       0.061600
     23 H1           2.6490     0.0050    -3.4560 ha         1 9RB       0.149000
     24 H2           4.1020     0.0150    -5.4260 ha         1 9RB       0.135500
     25 H3           6.3660     0.0220    -6.4530 ha         1 9RB       0.161000
     26 H4           8.5740     0.0140    -4.3170 ha         1 9RB       0.128000
     27 H5           7.5630     0.0080    -2.8720 ha         1 9RB       0.135500
     28 H6           6.1090    -0.0020    -0.9020 ha         1 9RB       0.149000
     29 H7          -0.3000     0.2020    -2.0980 hc         1 9RB       0.060367
     30 H8          -1.3670    -0.9700    -1.3120 hc         1 9RB       0.060367
     31 H9          -1.6520     0.7640    -1.1040 hc         1 9RB       0.060367
     32 H10          3.2390     0.0030     2.9200 hc         1 9RB       0.057700
     33 H11          3.7310     0.8870     1.4690 hc         1 9RB       0.057700
     34 H12          3.7340    -0.8820     1.4710 hc         1 9RB       0.057700
     35 H13         10.7500     0.0380    -5.4190 hn         1 9RB       0.319500
     36 H14         12.0920     0.0190    -7.2010 ho         1 9RB       0.397000
     37 H15         -2.2820     0.9000     1.4190 h1         1 9RB       0.059367
     38 H16         -2.3080    -0.8670     1.3340 h1         1 9RB       0.059367
     39 H17         -1.8120    -0.0610     2.8280 h1         1 9RB       0.059367
@<TRIPOS>BOND
     1    22    21 1
     2    20    21 1
     3    20    12 2
     4    21     1 1
     5    12    14 1
     6    12     2 1
     7     1    13 1
     8     1     2 2
     9     2    19 1
    10    19    18 2
    11    18     3 1
    12     3    11 ar
    13     3     4 ar
    14    11    10 ar
    15     4     5 ar
    16    10     6 ar
    17     5     6 ar
    18     6     7 1
    19     7     8 2
    20     8     9 1
    21     9    15 2
    22     9    16 1
    23    16    17 1
    24     4    23 1
    25     5    24 1
    26     7    25 1
    27     8    26 1
    28    10    27 1
    29    11    28 1
    30    13    29 1
    31    13    30 1
    32    13    31 1
    33    14    32 1
    34    14    33 1
    35    14    34 1
    36    16    35 1
    37    17    36 1
    38    22    37 1
    39    22    38 1
    40    22    39 1
@<TRIPOS>SUBSTRUCTURE
     1 9RB         1 TEMP              0 ****  ****    0 ROOT
