@<TRIPOS>MOLECULE
9RB
   39    42     1     0     0
SMALL
bcc


@<TRIPOS>ATOM
      1 C1           0.0000     0.0000     0.0000 c2         1 9RB      -0.159000
      2 C2           1.3820     0.0000     0.0000 c2         1 9RB      -0.241000
      3 C3           4.2860     0.0010    -2.0520 c2         1 9RB      -0.086000
      4 C4           3.7260     0.0060    -3.3350 c2         1 9RB      -0.052500
      5 C5           4.5360     0.0110    -4.4340 c2         1 9RB      -0.157500
      6 C6           5.9270     0.0120    -4.2770 c3         1 9RB       0.002000
      7 C7           6.8000     0.0170    -5.4600 c2         1 9RB       0.027000
      8 C8           8.1400     0.0180    -5.3090 c2         1 9RB      -0.170000
      9 C9           9.0100     0.0250    -6.4870 c3         1 9RB       0.354000
     10 C10          6.4870     0.0070    -2.9940 c2         1 9RB      -0.157500
     11 C11          5.6760     0.0020    -1.8950 c2         1 9RB      -0.052500
     12 C12          1.8000     0.0000     1.3510 c2         1 9RB      -0.021000
     13 C13         -0.8920    -0.0010    -1.2140 c3         1 9RB      -0.033000
     14 C14          3.2260     0.0020     1.8370 c3         1 9RB      -0.032000
     15 O            8.5230     0.0290    -7.6030 o          1 9RB      -0.408000
     16 N3          10.3500     0.0250    -6.3360 n7         1 9RB       0.080000
     17 O1          11.1900     0.0310    -7.4760 oh         1 9RB      -0.239000
     18 N2           3.4740     0.0010    -0.9540 n2         1 9RB      -0.083000
     19 N1           2.1920     0.0000    -1.0970 n2         1 9RB       0.030000
     20 N4           0.7340     0.0000     2.1030 n2         1 9RB      -0.230000
     21 N           -0.4010    -0.0070     1.2840 na         1 9RB       0.305000
     22 C           -1.7910    -0.0090     1.7460 c3         1 9RB      -0.082000
     23 H1           2.6490     0.0050    -3.4560 ha         1 9RB       0.119500
     24 H2           4.1020     0.0150    -5.4260 ha         1 9RB       0.120000
     25 H3           6.5860    -0.8600    -4.8620 DU         1 9RB       0.096000
     26 H4           8.3560    -0.8540    -5.9160 DU         1 9RB       0.026000
     27 H5           7.5630     0.0080    -2.8720 ha         1 9RB       0.120000
     28 H6           6.1090    -0.0020    -0.9020 ha         1 9RB       0.119500
     29 H7          -1.3660    -0.9700    -1.3130 hc         1 9RB       0.056667
     30 H8          -1.6520     0.7630    -1.1040 hc         1 9RB       0.056667
     31 H9          -0.3000     0.2040    -2.0970 hc         1 9RB       0.056667
     32 H10          3.7340    -0.8810     1.4690 hc         1 9RB       0.058000
     33 H11          3.7310     0.8880     1.4710 hc         1 9RB       0.058000
     34 H12          3.2390     0.0010     2.9200 hc         1 9RB       0.058000
     35 H13         10.7500     0.0580    -5.4200 hn         1 9RB       0.078000
     36 H14         12.0860     0.1410    -7.2050 ho         1 9RB       0.194000
     37 H15         -2.2770     0.9070     1.4340 h1         1 9RB       0.064000
     38 H16         -2.3130    -0.8580     1.3200 h1         1 9RB       0.064000
     39 H17         -1.8120    -0.0780     2.8270 h1         1 9RB       0.064000
@<TRIPOS>BOND
     1     1     2 1   
     2     1    13 1   
     3     1    21 1   
     4     2    12 1   
     5     2    19 1   
     6     3     4 1   
     7     3    11 1   
     8     3    18 1   
     9     4     5 1   
    10     4    23 1   
    11     5     6 1   
    12     5    24 1   
    13     6     7 1   
    14     6    10 1   
    15     6    25 1   
    16     7     8 1   
    17     7    25 1   
    18     8     9 1   
    19     8    26 1   
    20     9    15 1   
    21     9    16 1   
    22     9    26 1   
    23    10    11 1   
    24    10    27 1   
    25    11    28 1   
    26    12    14 1   
    27    12    20 1   
    28    13    29 1   
    29    13    30 1   
    30    13    31 1   
    31    14    32 1   
    32    14    33 1   
    33    14    34 1   
    34    16    17 1   
    35    16    35 1   
    36    17    36 1   
    37    18    19 1   
    38    20    21 1   
    39    21    22 1   
    40    22    37 1   
    41    22    38 1   
    42    22    39 1   
@<TRIPOS>SUBSTRUCTURE
     1 9RB         1 TEMP              0 ****  ****    0 ROOT
