@<TRIPOS>MOLECULE
molecule
   20    20     1     0     0
SMALL
bcc


@<TRIPOS>ATOM
      1 O1           0.0000     0.0000     0.0000 oh         1 9RH      -0.602800
      2 C1           1.4290     0.0000     0.0000 c3         1 9RH       0.369900
      3 O2           1.9040     0.0000     1.3480 oh         1 9RH      -0.602800
      4 C2           1.9310    -1.2310    -0.7100 ca         1 9RH      -0.145300
      5 C3           3.1360    -1.7980    -0.3410 ca         1 9RH      -0.081000
      6 C4           3.5970    -2.9280    -0.9920 ca         1 9RH      -0.138500
      7 C5           2.8520    -3.4890    -2.0130 ca         1 9RH      -0.106000
      8 C6           1.6480    -2.9210    -2.3820 ca         1 9RH      -0.138500
      9 C7           1.1840    -1.7950    -1.7270 ca         1 9RH      -0.081000
     10 C8           1.9400     1.2490    -0.7210 c3         1 9RH       0.615900
     11 F1           1.4730     2.3910    -0.0620 f          1 9RH      -0.214967
     12 F2           3.3390     1.2480    -0.7210 f          1 9RH      -0.214967
     13 F3           1.4730     1.2490    -2.0410 f          1 9RH      -0.214967
     14 H1          -0.3140    -0.3310     0.8250 ho         1 9RH       0.425500
     15 H2           1.2040     0.2490     1.9280 ho         1 9RH       0.425500
     16 H3           3.7190    -1.3590     0.4590 ha         1 9RH       0.150000
     17 H4           4.5410    -3.3730    -0.7020 ha         1 9RH       0.135000
     18 H5           3.2140    -4.3720    -2.5250 ha         1 9RH       0.132000
     19 H6           1.0630    -3.3630    -3.1810 ha         1 9RH       0.135000
     20 H7           0.2390    -1.3500    -2.0160 ha         1 9RH       0.150000
@<TRIPOS>BOND
     1     6     5 ar
     2     6     7 ar
     3     5     4 ar
     4     1     2 1
     5     7     8 ar
     6     4     2 1
     7     4     9 ar
     8     2     3 1
     9     2    10 1
    10    13    10 1
    11    10    11 1
    12    10    12 1
    13     8     9 ar
    14     1    14 1
    15     3    15 1
    16     5    16 1
    17     6    17 1
    18     7    18 1
    19     8    19 1
    20     9    20 1
@<TRIPOS>SUBSTRUCTURE
     1 9RH         1 TEMP              0 ****  ****    0 ROOT
