@<TRIPOS>MOLECULE
molecule
   28    29     1     0     0
SMALL
bcc


@<TRIPOS>ATOM
      1 CAA          0.0000     0.0000     0.0000 c3         1 9RM      -0.017900
      2 OAB          4.8300    -0.0020     2.4160 o          1 9RM      -0.609500
      3 FAC         -1.0680     1.0090     8.6490 f          1 9RM      -0.217967
      4 FAD         -2.6650     1.0190     7.0150 f          1 9RM      -0.217967
      5 FAE         -1.0910     2.6730     7.0840 f          1 9RM      -0.217967
      6 CAF          1.3040    -1.1460     6.1740 ca         1 9RM      -0.099000
      7 CAG          1.2310    -1.0210     4.8010 ca         1 9RM      -0.153000
      8 CAH          0.4750    -0.3910     6.9830 ca         1 9RM      -0.090000
      9 CAI         -0.5060     0.6230     5.0490 ca         1 9RM      -0.101000
     10 NAJ          2.4530     0.0000     0.0000 nc         1 9RM      -0.058600
     11 NAK          2.6230    -0.0040     2.6880 ns         1 9RM      -0.448100
     12 NAL          0.2480    -0.0050     2.8430 nu         1 9RM      -0.653400
     13 NAM          3.6030     0.0000     0.5740 nd         1 9RM      -0.304400
     14 CAN          1.3330    -0.0010     0.7010 cc         1 9RM      -0.140600
     15 CAO          0.3240    -0.1350     4.2330 ca         1 9RM       0.116600
     16 CAP         -0.4270     0.4930     6.4210 ca         1 9RM      -0.151300
     17 CAQ          1.3940    -0.0030     2.0900 cd         1 9RM       0.315600
     18 CAR          3.7230    -0.0020     1.9060 c          1 9RM       0.766900
     19 CAS         -1.3290     1.3130     7.3080 c3         1 9RM       0.675200
     20 HAA         -0.5570     0.8840     0.2850 hc         1 9RM       0.048700
     21 HAAA        -0.5570    -0.8850     0.2830 hc         1 9RM       0.048700
     22 HAAB         0.1560     0.0010    -1.0720 hc         1 9RM       0.048700
     23 HAF          2.0110    -1.8360     6.6170 ha         1 9RM       0.155000
     24 HAG          1.8810    -1.6130     4.1680 ha         1 9RM       0.156000
     25 HAH          0.5350    -0.4910     8.0600 ha         1 9RM       0.161000
     26 HAI         -1.2150     1.3140     4.6100 ha         1 9RM       0.155000
     27 HNAK         2.7060    -0.0040     3.6860 hn         1 9RM       0.350500
     28 HNAL        -0.6440     0.0820     2.3970 hn         1 9RM       0.482800
@<TRIPOS>BOND
     1     1    14 1
     2     2    18 2
     3     3    19 1
     4     4    19 1
     5     5    19 1
     6     6     7 ar
     7     6     8 ar
     8     7    15 ar
     9     8    16 ar
    10     9    15 ar
    11     9    16 ar
    12    10    13 2
    13    10    14 1
    14    11    17 1
    15    11    18 1
    16    12    15 1
    17    12    17 1
    18    13    18 1
    19    14    17 2
    20    16    19 1
    21     1    20 1
    22     1    21 1
    23     1    22 1
    24     6    23 1
    25     7    24 1
    26     8    25 1
    27     9    26 1
    28    11    27 1
    29    12    28 1
@<TRIPOS>SUBSTRUCTURE
     1 9RM         1 TEMP              0 ****  ****    0 ROOT
