@<TRIPOS>MOLECULE
9RM
   28    29     1     0     0
SMALL
bcc


@<TRIPOS>ATOM
      1 CAA          0.0000     0.0000     0.0000 c3         1 9RM       0.095100
      2 OAB          4.8300    -0.0020     2.4160 o          1 9RM      -0.654500
      3 FAC         -1.0680     1.0090     8.6490 f          1 9RM      -0.203300
      4 FAD         -2.6650     1.0190     7.0150 f          1 9RM      -0.203300
      5 FAE         -1.0910     2.6730     7.0840 f          1 9RM      -0.203300
      6 CAF          1.3040    -1.1460     6.1740 ca         1 9RM      -0.064000
      7 CAG          1.2310    -1.0210     4.8010 ca         1 9RM      -0.122000
      8 CAH          0.4750    -0.3910     6.9830 ca         1 9RM      -0.049000
      9 CAI         -0.5060     0.6230     5.0490 ca         1 9RM      -0.056000
     10 NAJ          2.4530     0.0000     0.0000 nc         1 9RM       0.003400
     11 NAK          2.6230    -0.0040     2.6880 ns         1 9RM      -0.011100
     12 NAL          0.2480    -0.0050     2.8430 nu         1 9RM      -0.177400
     13 NAM          3.6030     0.0000     0.5740 nd         1 9RM      -0.311400
     14 CAN          1.3330    -0.0010     0.7010 cc         1 9RM      -0.183600
     15 CAO          0.3240    -0.1350     4.2330 ca         1 9RM      -0.041400
     16 CAP         -0.4270     0.4930     6.4210 ca         1 9RM      -0.176300
     17 CAQ          1.3940    -0.0030     2.0900 cd         1 9RM      -0.004400
     18 CAR          3.7230    -0.0020     1.9060 c          1 9RM       0.664900
     19 CAS         -1.3290     1.3130     7.3080 c3         1 9RM       0.640200
     20 HAA         -0.5570     0.8840     0.2850 hc         1 9RM       0.010367
     21 HAAA        -0.5570    -0.8850     0.2830 hc         1 9RM       0.010367
     22 HAAB         0.1560     0.0010    -1.0720 hc         1 9RM       0.010367
     23 HAF          2.0110    -1.8360     6.6170 ha         1 9RM       0.121000
     24 HAG          1.8810    -1.6130     4.1680 ha         1 9RM       0.127000
     25 HAH          0.5350    -0.4910     8.0600 ha         1 9RM       0.130000
     26 HAI         -1.2150     1.3140     4.6100 ha         1 9RM       0.125000
     27 HNAK         2.7060    -0.0040     3.6860 hn         1 9RM       0.207500
     28 HNAL        -0.6440     0.0820     2.3970 hn         1 9RM       0.314800
@<TRIPOS>BOND
     1     1    14 1   
     2     1    20 1   
     3     1    21 1   
     4     1    22 1   
     5     2    18 2   
     6     3    19 1   
     7     4    19 1   
     8     5    19 1   
     9     6     7 ar  
    10     6     8 ar  
    11     6    23 1   
    12     7    15 ar  
    13     7    24 1   
    14     8    16 ar  
    15     8    25 1   
    16     9    15 ar  
    17     9    16 ar  
    18     9    26 1   
    19    10    13 2   
    20    10    14 1   
    21    11    17 1   
    22    11    18 1   
    23    11    27 1   
    24    12    15 1   
    25    12    17 1   
    26    12    28 1   
    27    13    18 1   
    28    14    17 2   
    29    16    19 1   
@<TRIPOS>SUBSTRUCTURE
     1 9RM         1 TEMP              0 ****  ****    0 ROOT
