@<TRIPOS>MOLECULE
molecule
   21    22     1     0     0
SMALL
bcc


@<TRIPOS>ATOM
      1 C2           0.0000     0.0000     0.0000 c3         1 9RN       0.102100
      2 C4           1.9720     0.0000     1.4940 c3         1 9RN       0.085100
      3 C5           1.5730     1.4560     1.8700 c3         1 9RN       0.114100
      4 C6           1.9670     2.2300     0.5890 c3         1 9RN       0.088400
      5 O4           3.3780    -0.2100     1.6320 oh         1 9RN      -0.590800
      6 O5           0.1270     1.4690     1.9340 os         1 9RN      -0.430600
      7 O3           1.9650     1.2870    -0.4910 os         1 9RN      -0.407600
      8 C3           1.5420     0.0000     0.0000 c3         1 9RN       0.114100
      9 O2          -0.4790    -1.1280     0.7360 oh         1 9RN      -0.584800
     10 C1          -0.4940     1.2900     0.6590 c3         1 9RN       0.334900
     11 O1          -1.9100     1.2210     0.8290 oh         1 9RN      -0.573800
     12 H1          -0.3640    -0.0500    -1.0190 h1         1 9RN       0.056700
     13 H2           1.4040    -0.7230     2.0660 h1         1 9RN       0.090700
     14 H3           2.0570     1.8230     2.7680 h1         1 9RN       0.112700
     15 H4           2.9570     2.6560     0.7040 h1         1 9RN       0.059200
     16 H5           1.2470     3.0150     0.3950 h1         1 9RN       0.059200
     17 H6           3.5320    -0.9240     2.2280 ho         1 9RN       0.408000
     18 H7           1.9660    -0.8250    -0.5600 h1         1 9RN       0.102700
     19 H8          -0.9700    -1.6920     0.1620 ho         1 9RN       0.408000
     20 H9          -0.2510     2.1320     0.0230 h2         1 9RN       0.040700
     21 H10         -2.2730     2.0910     0.8010 ho         1 9RN       0.409000
@<TRIPOS>BOND
     1     5     2 1
     2     4     3 1
     3     4     7 1
     4     3     2 1
     5     3     6 1
     6     2     8 1
     7     7     8 1
     8     6    10 1
     9     8     1 1
    10    10     1 1
    11    10    11 1
    12     1     9 1
    13     1    12 1
    14     2    13 1
    15     3    14 1
    16     4    15 1
    17     4    16 1
    18     5    17 1
    19     8    18 1
    20     9    19 1
    21    10    20 1
    22    11    21 1
@<TRIPOS>SUBSTRUCTURE
     1 9RN         1 TEMP              0 ****  ****    0 ROOT
