@<TRIPOS>MOLECULE
molecule
   82    85     1     0     0
SMALL
bcc


@<TRIPOS>ATOM
      1 O36          0.0000     0.0000     0.0000 oh         1 9RO      -0.523100
      2 C33          1.3590     0.0000     0.0000 ca         1 9RO       0.106100
      3 C32          2.0540     0.0000     1.2000 ca         1 9RO      -0.156000
      4 C31          3.4340     0.0010     1.1990 ca         1 9RO      -0.100500
      5 C34          2.0540    -0.0040    -1.2010 ca         1 9RO      -0.156000
      6 C35          3.4350    -0.0020    -1.1980 ca         1 9RO      -0.100500
      7 C30          4.1260     0.0030     0.0000 ca         1 9RO      -0.128300
      8 C27          5.6320     0.0050     0.0000 c3         1 9RO       0.191400
      9 O28          6.1080     0.8720    -1.0310 os         1 9RO      -0.423600
     10 C29          6.2010     2.2430    -0.6400 c3         1 9RO       0.127700
     11 C26          6.1440    -1.4150    -0.2510 c3         1 9RO      -0.073400
     12 C25          7.6690    -1.4380    -0.1250 c3         1 9RO      -0.083400
     13 C24          8.1700    -2.8770    -0.2530 c3         1 9RO      -0.080400
     14 C21          9.6940    -2.9000    -0.1260 c3         1 9RO      -0.069700
     15 C22         10.0950    -2.4560     1.2830 c3         1 9RO      -0.095100
     16 C20         10.2050    -4.3200    -0.3770 c3         1 9RO      -0.054700
     17 C16         11.7240    -4.3570    -0.2900 c3         1 9RO      -0.061000
     18 C23         12.2920    -3.0350    -0.8100 c3         1 9RO      -0.092100
     19 C15         12.3590    -4.6860     1.0410 c3         1 9RO      -0.065400
     20 C14         13.8810    -4.5470     0.8760 c3         1 9RO      -0.078400
     21 C13         14.4210    -5.4800    -0.2070 c3         1 9RO      -0.043200
     22 C19          9.8710    -4.7640    -1.8250 c3         1 9RO      -0.081400
     23 C18         11.2260    -5.1400    -2.4900 c3         1 9RO      -0.078400
     24 C17         12.1090    -5.4880    -1.2860 c3         1 9RO      -0.035500
     25 C12         13.5910    -5.3670    -1.4780 c2         1 9RO      -0.095400
     26 C11         14.1410    -5.1750    -2.6720 ce         1 9RO      -0.152000
     27 C10         15.6030    -5.0640    -2.7990 ce         1 9RO      -0.133000
     28 C4          16.1460    -4.7670    -3.9750 c2         1 9RO      -0.110400
     29 C3          17.6470    -4.7850    -4.1540 c3         1 9RO      -0.051700
     30 C2          17.9900    -5.7210    -5.3200 c3         1 9RO       0.194800
     31 O9          17.7410    -7.0750    -4.9370 oh         1 9RO      -0.603800
     32 C5          15.2740    -4.4110    -5.1580 c3         1 9RO      -0.051700
     33 C6          15.6220    -5.3490    -6.3210 c3         1 9RO       0.194800
     34 O8          14.9970    -4.8810    -7.5170 oh         1 9RO      -0.603800
     35 C1          17.1180    -5.3600    -6.5010 c2         1 9RO      -0.150400
     36 C7          17.6510    -5.0660    -7.6610 c2         1 9RO      -0.191000
     37 H1          -0.3140    -0.8890     0.0020 ho         1 9RO       0.419000
     38 H2           1.5130    -0.0020     2.1390 ha         1 9RO       0.140000
     39 H3           3.9770     0.0030     2.1360 ha         1 9RO       0.139500
     40 H4           1.5130    -0.0080    -2.1400 ha         1 9RO       0.140000
     41 H5           3.9780    -0.0030    -2.1360 ha         1 9RO       0.139500
     42 H6           5.9930     0.3540     0.9600 h1         1 9RO       0.041700
     43 H7           6.2170     2.3100     0.4410 h1         1 9RO       0.031700
     44 H8           7.1110     2.6720    -1.0420 h1         1 9RO       0.031700
     45 H9           5.3460     2.7870    -1.0220 h1         1 9RO       0.031700
     46 H10          5.8590    -1.7290    -1.2480 hc         1 9RO       0.054200
     47 H11          5.7110    -2.0890     0.4780 hc         1 9RO       0.054200
     48 H12          7.9570    -1.0400     0.8410 hc         1 9RO       0.048200
     49 H13          8.1050    -0.8330    -0.9100 hc         1 9RO       0.048200
     50 H14          7.7330    -3.4830     0.5330 hc         1 9RO       0.042200
     51 H15          7.8820    -3.2750    -1.2180 hc         1 9RO       0.042200
     52 H16         10.1270    -2.2260    -0.8540 hc         1 9RO       0.060700
     53 H17         10.2370    -3.3270     1.9100 hc         1 9RO       0.035700
     54 H18          9.3140    -1.8330     1.7010 hc         1 9RO       0.035700
     55 H19         11.0190    -1.8920     1.2340 hc         1 9RO       0.035700
     56 H20          9.7730    -5.0120     0.3350 hc         1 9RO       0.053700
     57 H21         13.2990    -3.1940    -1.1750 hc         1 9RO       0.040700
     58 H22         12.3090    -2.3090    -0.0060 hc         1 9RO       0.040700
     59 H23         11.6690    -2.6670    -1.6160 hc         1 9RO       0.040700
     60 H24         12.0080    -3.9920     1.7960 hc         1 9RO       0.044700
     61 H25         12.1120    -5.7020     1.3240 hc         1 9RO       0.044700
     62 H26         14.3600    -4.7870     1.8170 hc         1 9RO       0.042700
     63 H27         14.1140    -3.5240     0.6060 hc         1 9RO       0.042700
     64 H28         14.3830    -6.5010     0.1530 hc         1 9RO       0.049200
     65 H29         15.4470    -5.2120    -0.4270 hc         1 9RO       0.049200
     66 H30          9.4070    -3.9480    -2.3660 hc         1 9RO       0.044700
     67 H31          9.2160    -5.6260    -1.8060 hc         1 9RO       0.044700
     68 H32         11.6330    -4.2950    -3.0310 hc         1 9RO       0.047200
     69 H33         11.1070    -6.0000    -3.1390 hc         1 9RO       0.047200
     70 H34         11.8480    -6.4590    -0.8820 hc         1 9RO       0.066700
     71 H35         13.5130    -5.1010    -3.5520 ha         1 9RO       0.135000
     72 H36         16.2380    -5.3210    -1.9600 ha         1 9RO       0.131000
     73 H37         18.1160    -5.1470    -3.2480 hc         1 9RO       0.057950
     74 H38         17.9980    -3.7840    -4.3770 hc         1 9RO       0.057950
     75 H39         19.0320    -5.5990    -5.5890 h1         1 9RO       0.046700
     76 H40         18.5350    -7.5770    -5.0220 ho         1 9RO       0.401500
     77 H41         15.4610    -3.3850    -5.4510 hc         1 9RO       0.057950
     78 H42         14.2320    -4.5350    -4.8910 hc         1 9RO       0.057950
     79 H43         15.2780    -6.3510    -6.0930 h1         1 9RO       0.046700
     80 H44         14.2320    -5.4020    -7.6980 ho         1 9RO       0.401500
     81 H45         17.0160    -4.8110    -8.5010 ha         1 9RO       0.122000
     82 H46         18.7280    -5.0800    -7.7820 ha         1 9RO       0.122000
@<TRIPOS>BOND
     1    36    35 2
     2    34    33 1
     3    35    33 1
     4    35    30 1
     5    33    32 1
     6    30    31 1
     7    30    29 1
     8    32    28 1
     9    29    28 1
    10    28    27 2
    11    27    26 1
    12    26    25 2
    13    25    24 1
    14    25    21 1
    15    23    24 1
    16    23    22 1
    17    10     9 1
    18    18    17 1
    19    24    17 1
    20    22    16 1
    21    21    20 1
    22    17    16 1
    23    17    19 1
    24     9     8 1
    25    11    12 1
    26    11     8 1
    27    20    19 1
    28    13    12 1
    29    13    14 1
    30    16    14 1
    31     8     7 1
    32    14    15 1
    33     7     4 ar
    34     7     6 ar
    35     4     3 ar
    36     6     5 ar
    37     3     2 ar
    38     5     2 ar
    39     2     1 1
    40     1    37 1
    41     3    38 1
    42     4    39 1
    43     5    40 1
    44     6    41 1
    45     8    42 1
    46    10    43 1
    47    10    44 1
    48    10    45 1
    49    11    46 1
    50    11    47 1
    51    12    48 1
    52    12    49 1
    53    13    50 1
    54    13    51 1
    55    14    52 1
    56    15    53 1
    57    15    54 1
    58    15    55 1
    59    16    56 1
    60    18    57 1
    61    18    58 1
    62    18    59 1
    63    19    60 1
    64    19    61 1
    65    20    62 1
    66    20    63 1
    67    21    64 1
    68    21    65 1
    69    22    66 1
    70    22    67 1
    71    23    68 1
    72    23    69 1
    73    24    70 1
    74    26    71 1
    75    27    72 1
    76    29    73 1
    77    29    74 1
    78    30    75 1
    79    31    76 1
    80    32    77 1
    81    32    78 1
    82    33    79 1
    83    34    80 1
    84    36    81 1
    85    36    82 1
@<TRIPOS>SUBSTRUCTURE
     1 9RO         1 TEMP              0 ****  ****    0 ROOT
