@<TRIPOS>MOLECULE
molecule
   33    36     1     0     0
SMALL
bcc


@<TRIPOS>ATOM
      1 N3           0.0000     0.0000     0.0000 na         1 9RP       0.137300
      2 C4           3.1620     0.0000     1.8090 cc         1 9RP       0.048700
      3 C7           0.6030     0.0010     2.1190 cd         1 9RP       0.355200
      4 C8           4.1810    -0.7130     1.2640 cd         1 9RP      -0.178200
      5 C10          4.9680     0.4810     3.0610 ca         1 9RP      -0.013200
      6 C15          6.7070    -0.8260     2.0040 ca         1 9RP       0.467200
      7 C17         -2.0280    -0.6830    -1.1250 ca         1 9RP      -0.125000
      8 C20         -1.2460     0.7040    -3.3890 ca         1 9RP      -0.117500
      9 C21         -2.4410     0.0080    -3.3790 ca         1 9RP      -0.127000
     10 C1           1.7660     0.0000     1.3220 cd         1 9RP      -0.278100
     11 C2           1.3580     0.0000     0.0000 cc         1 9RP       0.139800
     12 N5          -0.4370     0.0010     1.3300 nc         1 9RP      -0.490800
     13 N6           3.6270     0.7180     2.8860 na         1 9RP      -0.172400
     14 C9           5.3740    -0.4190     2.0530 ca         1 9RP      -0.228100
     15 C11         -0.8230     0.0060    -1.1350 ca         1 9RP       0.012800
     16 O12          2.1630    -0.0000    -1.0910 oh         1 9RP      -0.476100
     17 N13          7.5720    -0.3670     2.8850 nb         1 9RP      -0.712000
     18 C14          5.9270     0.9300     3.9650 ca         1 9RP      -0.269300
     19 C16          7.2250     0.4830     3.8370 ca         1 9RP       0.427200
     20 C18         -0.4330     0.7000    -2.2730 ca         1 9RP      -0.125000
     21 C19         -2.8330    -0.6800    -2.2460 ca         1 9RP      -0.117500
     22 H1           0.5770     0.0020     3.2030 h4         1 9RP       0.055100
     23 H2           4.0840    -1.4990     0.5250 ha         1 9RP       0.151000
     24 H3           7.0320    -1.5210     1.2390 h4         1 9RP       0.023100
     25 H5          -0.9420     1.2440    -4.2780 ha         1 9RP       0.139000
     26 H6          -3.0760     0.0100    -4.2560 ha         1 9RP       0.135000
     27 H8           3.0710     1.3230     3.4570 hn         1 9RP       0.299700
     28 H9           5.6600     1.6260     4.7510 ha         1 9RP       0.132000
     29 H10          7.9750     0.8300     4.5370 h4         1 9RP       0.022100
     30 H11          0.5030     1.2460    -2.2810 ha         1 9RP       0.154500
     31 H12         -3.7720    -1.2210    -2.2390 ha         1 9RP       0.139000
     32 H7           2.3190    -0.8890    -1.3670 ho         1 9RP       0.434000
     33 H4          -2.3360    -1.2220    -0.2370 ha         1 9RP       0.154500
@<TRIPOS>BOND
     1     9    21 ar
     2     9     8 ar
     3    21     7 ar
     4     8    20 ar
     5     7    15 ar
     6    20    15 ar
     7    15     1 1
     8     1    11 1
     9     1    12 1
    10    16    11 1
    11    11    10 2
    12    12     3 2
    13    10     3 1
    14    10     2 1
    15    13     2 1
    16    13     5 1
    17     2     4 2
    18     5    18 ar
    19     5    14 ar
    20    18    19 ar
    21     4    14 1
    22    14     6 ar
    23    19    17 ar
    24     6    17 ar
    25     3    22 1
    26     4    23 1
    27     6    24 1
    28     7    33 1
    29     8    25 1
    30     9    26 1
    31    13    27 1
    32    18    28 1
    33    19    29 1
    34    20    30 1
    35    21    31 1
    36    16    32 1
@<TRIPOS>SUBSTRUCTURE
     1 9RP         1 TEMP              0 ****  ****    0 ROOT
