@<TRIPOS>MOLECULE
molecule
   43    45     1     0     0
SMALL
bcc


@<TRIPOS>ATOM
      1 C4           0.0000     0.0000     0.0000 ca         1 9RQ      -0.114500
      2 C14         -7.0150    -5.0250     6.9170 c3         1 9RQ      -0.222400
      3 C5           1.3820     0.0000     0.0000 ca         1 9RQ      -0.142500
      4 C6           2.0730     0.0000     1.1980 ca         1 9RQ      -0.159000
      5 C11         -5.8090    -2.9990     5.1270 ca         1 9RQ      -0.026000
      6 C7           1.3810     0.0010     2.3950 ca         1 9RQ      -0.142500
      7 C8          -0.0000     0.0030     2.3940 ca         1 9RQ      -0.114500
      8 C9          -4.9710    -2.3510     2.9790 ca         1 9RQ       0.228100
      9 C10         -5.2530    -2.0560     4.3130 ca         1 9RQ      -0.168000
     10 C12         -6.0990    -4.2720     4.6200 ca         1 9RQ      -0.194800
     11 C13         -6.6960    -5.3040     5.4710 cc         1 9RQ       0.093600
     12 C3          -0.6920     0.0020     1.1970 ca         1 9RQ      -0.009300
     13 P1          -2.8080    -1.4040     2.1820 p5         1 9RQ       1.130600
     14 C1          -2.1990     0.0030     1.1970 c3         1 9RQ      -0.199600
     15 C2          -2.7080     1.3120     1.8050 c3         1 9RQ      -0.064100
     16 O2          -4.4180    -1.4030     2.1820 os         1 9RQ      -0.482500
     17 S1          -5.4810    -5.0180     7.8840 s6         1 9RQ       1.251800
     18 O3          -5.9320    -4.7300     9.3090 o          1 9RQ      -0.695200
     19 O4          -4.9260    -6.3250     7.9500 o          1 9RQ      -0.695200
     20 O5          -4.6780    -3.8990     7.5370 o          1 9RQ      -0.695200
     21 C15         -6.9540    -6.5180     4.9210 cd         1 9RQ      -0.336200
     22 C16         -6.6460    -6.7540     3.5650 c          1 9RQ       0.754800
     23 O6          -6.0970    -5.8040     2.7910 os         1 9RQ      -0.316200
     24 O7          -6.8830    -7.8480     3.0840 o          1 9RQ      -0.652500
     25 C17         -5.8170    -4.5760     3.2750 ca         1 9RQ       0.172100
     26 C18         -5.2520    -3.6050     2.4620 ca         1 9RQ      -0.183000
     27 O8          -2.3150    -1.2820     3.5720 o          1 9RQ      -0.780000
     28 H5          -0.5410    -0.0010    -0.9380 ha         1 9RQ       0.151000
     29 H6           1.9240    -0.0010    -0.9380 ha         1 9RQ       0.107000
     30 H7           3.1570    -0.0010     1.1980 ha         1 9RQ       0.099000
     31 H11         -6.0250    -2.7640     6.1620 ha         1 9RQ       0.164000
     32 H8           1.9220     0.0020     3.3340 ha         1 9RQ       0.107000
     33 H9          -0.5420     0.0050     3.3320 ha         1 9RQ       0.151000
     34 H10         -5.0370    -1.0690     4.7020 ha         1 9RQ       0.146000
     35 H3          -3.6180     1.6140     1.3010 hc         1 9RQ       0.025700
     36 H4          -1.9560     2.0820     1.6860 hc         1 9RQ       0.025700
     37 H2          -2.9110     1.1650     2.8590 hc         1 9RQ       0.025700
     38 H15         -7.3960    -7.3040     5.5220 ha         1 9RQ       0.156000
     39 H16         -5.0300    -3.8270     1.4250 ha         1 9RQ       0.161000
     40 H1          -2.5590    -0.0860     0.1790 hc         1 9RQ       0.054700
     41 H12         -7.6770    -5.7950     7.2960 h1         1 9RQ       0.083700
     42 H13         -7.4990    -4.0590     7.0010 h1         1 9RQ       0.083700
     43 O1          -2.2720    -2.7800     1.5420 o          1 9RQ      -0.780000
@<TRIPOS>BOND
     1     1     3 ar
     2     1    12 ar
     3     2    11 1
     4     2    17 1
     5     3     4 ar
     6     4     6 ar
     7     5     9 ar
     8     5    10 ar
     9     6     7 ar
    10     7    12 ar
    11     8     9 ar
    12     8    16 1
    13     8    26 ar
    14    10    11 1
    15    10    25 ar
    16    11    21 2
    17    12    14 1
    18    43    13 1
    19    13    14 1
    20    13    16 1
    21    13    27 1
    22    14    15 1
    23    17    18 1
    24    17    19 1
    25    17    20 1
    26    21    22 1
    27    22    23 1
    28    22    24 2
    29    23    25 1
    30    25    26 ar
    31     1    28 1
    32     2    41 1
    33     2    42 1
    34     3    29 1
    35     4    30 1
    36     5    31 1
    37     6    32 1
    38     7    33 1
    39     9    34 1
    40    14    40 1
    41    15    35 1
    42    15    36 1
    43    15    37 1
    44    21    38 1
    45    26    39 1
@<TRIPOS>SUBSTRUCTURE
     1 9RQ         1 TEMP              0 ****  ****    0 ROOT
