@<TRIPOS>MOLECULE
9RS
   55    59     1     0     0
SMALL
bcc


@<TRIPOS>ATOM
      1 N3           0.0000     0.0000     0.0000 na         1 9RS       0.605300
      2 C5           3.1620     0.0010     1.8090 cc         1 9RS      -0.129300
      3 C6           0.6030    -0.0010     2.1200 cc         1 9RS       0.408600
      4 C8           3.6430     0.7850     2.8070 cd         1 9RS      -0.142200
      5 C10          5.0610     0.4620     2.9570 ca         1 9RS      -0.226100
      6 C20         -2.8350    -0.6770    -2.2450 ca         1 9RS      -0.118300
      7 C21         -4.1420    -1.4250    -2.2340 c3         1 9RS       0.128300
      8 C22          6.0860     0.9100     3.7880 ca         1 9RS       0.465200
      9 C24          0.5660    -0.0020     3.6260 c3         1 9RS      -0.010400
     10 C26          7.5910    -0.5290     2.7850 ca         1 9RS       0.413200
     11 C28         -2.4470     0.0210    -3.3740 ca         1 9RS      -0.076000
     12 C1           1.7660     0.0000     1.3230 cc         1 9RS      -0.276100
     13 C2           1.3590     0.0000     0.0000 cd         1 9RS      -0.041200
     14 N4          -0.4370    -0.0010     1.3300 nd         1 9RS      -0.653800
     15 N7           4.1750    -0.7900     1.3150 na         1 9RS       0.366600
     16 C9          -0.8210     0.0050    -1.1350 ca         1 9RS      -0.158200
     17 C11         -6.4730    -0.9950    -1.6680 c          1 9RS       0.565100
     18 C12          5.3390    -0.5350     1.9980 ca         1 9RS      -0.206200
     19 N13         -7.4540    -0.1800    -1.2320 ns         1 9RS      -0.052100
     20 N14         -5.2090    -0.5390    -1.7610 ns         1 9RS      -0.218900
     21 O15          2.1640     0.0010    -1.0910 oh         1 9RS      -0.455100
     22 C16         -2.0270    -0.6850    -1.1240 ca         1 9RS      -0.063000
     23 O17         -6.7290    -2.1440    -1.9770 o          1 9RS      -0.694100
     24 N18          7.2980     0.4050     3.6740 nb         1 9RS      -0.612000
     25 C19          6.6390    -1.0280     1.9230 ca         1 9RS      -0.227300
     26 C23         -8.7840    -0.6180    -1.2410 ca         1 9RS      -0.072400
     27 C25         -0.4380     0.7100    -2.2680 ca         1 9RS      -0.095000
     28 C27         -1.2500     0.7140    -3.3850 ca         1 9RS      -0.090000
     29 C29         -9.6640    -0.1870    -0.2560 ca         1 9RS      -0.120500
     30 C30         -9.2260    -1.4780    -2.2360 ca         1 9RS      -0.120500
     31 C31        -10.9750    -0.6200    -0.2670 ca         1 9RS      -0.082000
     32 C32        -10.5380    -1.9080    -2.2410 ca         1 9RS      -0.082000
     33 C33        -11.4110    -1.4820    -1.2580 ca         1 9RS      -0.119000
     34 H1           3.1300     1.6250     3.2600 ha         1 9RS       0.136000
     35 H2          -4.0640    -2.2800    -1.5740 h1         1 9RS       0.030700
     36 H3          -4.3730    -1.7640    -3.2370 h1         1 9RS       0.030700
     37 H4           5.8860     1.6740     4.5290 h4         1 9RS      -0.022900
     38 H5           1.2310    -0.7700     4.0030 hc         1 9RS       0.017700
     39 H6           0.8840     0.9650     3.9960 hc         1 9RS       0.017700
     40 H7          -0.4440    -0.2030     3.9620 hc         1 9RS       0.017700
     41 H8           8.6040    -0.9100     2.7330 h4         1 9RS      -0.023900
     42 H9          -3.0820     0.0250    -4.2520 ha         1 9RS       0.113000
     43 H11          4.0770    -1.4560     0.5740 hn         1 9RS       0.109700
     44 H12         -7.2340     0.7440    -0.9180 hn         1 9RS       0.160500
     45 H13         -4.9970     0.4040    -1.5020 hn         1 9RS       0.172500
     46 H14         -2.3050    -1.2750    -0.2600 ha         1 9RS       0.132000
     47 H15          6.8970    -1.7940     1.2010 ha         1 9RS       0.107000
     48 H16          0.4990     1.2530    -2.2770 ha         1 9RS       0.130000
     49 H17         -0.9500     1.2620    -4.2700 ha         1 9RS       0.112000
     50 H18         -9.3220     0.4880     0.5190 ha         1 9RS       0.122000
     51 H19         -8.5420    -1.8130    -3.0070 ha         1 9RS       0.122000
     52 H20        -11.6620    -0.2870     0.5010 ha         1 9RS       0.102000
     53 H21        -10.8840    -2.5820    -3.0160 ha         1 9RS       0.102000
     54 H22        -12.4400    -1.8210    -1.2650 ha         1 9RS       0.102000
     55 H10          2.3300    -0.8880    -1.3600 ho         1 9RS       0.403000
@<TRIPOS>BOND
     1     1    13 1   
     2     1    14 1   
     3     1    16 1   
     4     2     4 2   
     5     2    12 1   
     6     2    15 1   
     7     3     9 1   
     8     3    12 1   
     9     3    14 2   
    10     4     5 1   
    11     4    34 1   
    12     5     8 ar  
    13     5    18 ar  
    14     6     7 1   
    15     6    11 ar  
    16     6    22 ar  
    17     7    20 1   
    18     7    35 1   
    19     7    36 1   
    20     8    24 ar  
    21     8    37 1   
    22     9    38 1   
    23     9    39 1   
    24     9    40 1   
    25    10    24 ar  
    26    10    25 ar  
    27    10    41 1   
    28    11    28 ar  
    29    11    42 1   
    30    12    13 2   
    31    13    21 1   
    32    15    18 1   
    33    15    43 1   
    34    16    22 ar  
    35    16    27 ar  
    36    17    19 1   
    37    17    20 1   
    38    17    23 2   
    39    18    25 ar  
    40    19    26 1   
    41    19    44 1   
    42    20    45 1   
    43    21    55 1   
    44    22    46 1   
    45    25    47 1   
    46    26    29 ar  
    47    26    30 ar  
    48    27    28 ar  
    49    27    48 1   
    50    28    49 1   
    51    29    31 ar  
    52    29    50 1   
    53    30    32 ar  
    54    30    51 1   
    55    31    33 ar  
    56    31    52 1   
    57    32    33 ar  
    58    32    53 1   
    59    33    54 1   
@<TRIPOS>SUBSTRUCTURE
     1 9RS         1 TEMP              0 ****  ****    0 ROOT
