@<TRIPOS>MOLECULE
molecule
   55    59     1     0     0
SMALL
bcc


@<TRIPOS>ATOM
      1 N3           0.0000     0.0000     0.0000 na         1 9RS       0.136300
      2 C5           3.1620     0.0010     1.8090 cc         1 9RS       0.045700
      3 C6           0.6030    -0.0010     2.1200 cd         1 9RS       0.382600
      4 C8           3.6430     0.7850     2.8070 cd         1 9RS      -0.174200
      5 C10          5.0610     0.4620     2.9570 ca         1 9RS      -0.230100
      6 C20         -2.8350    -0.6770    -2.2450 ca         1 9RS      -0.110300
      7 C21         -4.1420    -1.4250    -2.2340 c3         1 9RS       0.180300
      8 C22          6.0860     0.9100     3.7880 ca         1 9RS       0.469200
      9 C24          0.5660    -0.0020     3.6260 c3         1 9RS      -0.113400
     10 C26          7.5910    -0.5290     2.7850 ca         1 9RS       0.428200
     11 C28         -2.4470     0.0210    -3.3740 ca         1 9RS      -0.113000
     12 C1           1.7660     0.0000     1.3230 cd         1 9RS      -0.268100
     13 C2           1.3590     0.0000     0.0000 cc         1 9RS       0.120800
     14 N4          -0.4370    -0.0010     1.3300 nc         1 9RS      -0.495800
     15 N7           4.1750    -0.7900     1.3150 na         1 9RS      -0.175400
     16 C9          -0.8210     0.0050    -1.1350 ca         1 9RS       0.013800
     17 C11         -6.4730    -0.9950    -1.6680 c          1 9RS       0.781100
     18 C12          5.3390    -0.5350     1.9980 ca         1 9RS      -0.011200
     19 N13         -7.4540    -0.1800    -1.2320 ns         1 9RS      -0.492100
     20 N14         -5.2090    -0.5390    -1.7610 ns         1 9RS      -0.600900
     21 O15          2.1640     0.0010    -1.0910 oh         1 9RS      -0.479100
     22 C16         -2.0270    -0.6850    -1.1240 ca         1 9RS      -0.102000
     23 O17         -6.7290    -2.1440    -1.9770 o          1 9RS      -0.646100
     24 N18          7.2980     0.4050     3.6740 nb         1 9RS      -0.712000
     25 C19          6.6390    -1.0280     1.9230 ca         1 9RS      -0.271300
     26 C23         -8.7840    -0.6180    -1.2410 ca         1 9RS       0.074600
     27 C25         -0.4380     0.7100    -2.2680 ca         1 9RS      -0.128000
     28 C27         -1.2500     0.7140    -3.3850 ca         1 9RS      -0.119000
     29 C29         -9.6640    -0.1870    -0.2560 ca         1 9RS      -0.146000
     30 C30         -9.2260    -1.4780    -2.2360 ca         1 9RS      -0.146000
     31 C31        -10.9750    -0.6200    -0.2670 ca         1 9RS      -0.111000
     32 C32        -10.5380    -1.9080    -2.2410 ca         1 9RS      -0.111000
     33 C33        -11.4110    -1.4820    -1.2580 ca         1 9RS      -0.147000
     34 H1           3.1300     1.6250     3.2600 ha         1 9RS       0.160000
     35 H2          -4.0640    -2.2800    -1.5740 h1         1 9RS       0.062200
     36 H3          -4.3730    -1.7640    -3.2370 h1         1 9RS       0.062200
     37 H4           5.8860     1.6740     4.5290 h4         1 9RS       0.024100
     38 H5           1.2310    -0.7700     4.0030 hc         1 9RS       0.058367
     39 H6           0.8840     0.9650     3.9960 hc         1 9RS       0.058367
     40 H7          -0.4440    -0.2030     3.9620 hc         1 9RS       0.058367
     41 H8           8.6040    -0.9100     2.7330 h4         1 9RS       0.022100
     42 H9          -3.0820     0.0250    -4.2520 ha         1 9RS       0.142000
     43 H11          4.0770    -1.4560     0.5740 hn         1 9RS       0.293700
     44 H12         -7.2340     0.7440    -0.9180 hn         1 9RS       0.317500
     45 H13         -4.9970     0.4040    -1.5020 hn         1 9RS       0.313500
     46 H14         -2.3050    -1.2750    -0.2600 ha         1 9RS       0.160000
     47 H15          6.8970    -1.7940     1.2010 ha         1 9RS       0.131000
     48 H16          0.4990     1.2530    -2.2770 ha         1 9RS       0.158000
     49 H17         -0.9500     1.2620    -4.2700 ha         1 9RS       0.143000
     50 H18         -9.3220     0.4880     0.5190 ha         1 9RS       0.145000
     51 H19         -8.5420    -1.8130    -3.0070 ha         1 9RS       0.145000
     52 H20        -11.6620    -0.2870     0.5010 ha         1 9RS       0.131500
     53 H21        -10.8840    -2.5820    -3.0160 ha         1 9RS       0.131500
     54 H22        -12.4400    -1.8210    -1.2650 ha         1 9RS       0.128000
     55 H10          2.3300    -0.8880    -1.3600 ho         1 9RS       0.427000
@<TRIPOS>BOND
     1     7    20 1
     2     7     6 1
     3    11    28 ar
     4    11     6 ar
     5    20    17 1
     6    28    27 ar
     7     6    22 ar
     8    17    19 1
     9    17    23 2
    10    30    32 ar
    11    30    26 ar
    12    19    26 1
    13    32    33 ar
    14    26    29 ar
    15    27    16 ar
    16    22    16 ar
    17    33    31 ar
    18    16     1 1
    19    29    31 ar
    20     1    13 1
    21     1    14 1
    22    21    13 1
    23    13    12 2
    24    14     3 2
    25    12     3 1
    26    12     2 1
    27     3     9 1
    28    15     2 1
    29    15    18 1
    30     2     4 2
    31    18    25 ar
    32    18     5 ar
    33    25    10 ar
    34     4     5 1
    35     5     8 ar
    36    10    24 ar
    37     8    24 ar
    38     4    34 1
    39     7    35 1
    40     7    36 1
    41     8    37 1
    42     9    38 1
    43     9    39 1
    44     9    40 1
    45    10    41 1
    46    11    42 1
    47    15    43 1
    48    19    44 1
    49    20    45 1
    50    22    46 1
    51    25    47 1
    52    27    48 1
    53    28    49 1
    54    29    50 1
    55    30    51 1
    56    31    52 1
    57    32    53 1
    58    33    54 1
    59    21    55 1
@<TRIPOS>SUBSTRUCTURE
     1 9RS         1 TEMP              0 ****  ****    0 ROOT
