@<TRIPOS>MOLECULE
molecule
   35    36     1     0     0
SMALL
bcc


@<TRIPOS>ATOM
      1 N1           0.0000     0.0000     0.0000 nz         1 9RT      -0.809600
      2 C1           1.4690     0.0000     0.0000 c3         1 9RT       0.154100
      3 C2           1.9720     0.0000     1.4200 ca         1 9RT      -0.151300
      4 C3           2.2020    -1.1970     2.0720 ca         1 9RT      -0.125000
      5 C4           2.6630    -1.1980     3.3750 ca         1 9RT      -0.014500
      6 C5           2.8930     0.0000     4.0270 ca         1 9RT      -0.269500
      7 S1           3.4790     0.0000     5.6890 sy         1 9RT       1.409200
      8 O1           3.1000     1.2500     6.2480 o          1 9RT      -0.608300
      9 O2           3.0990    -1.2500     6.2480 o          1 9RT      -0.608300
     10 N2           5.1340    -0.0000     5.6250 n7         1 9RT      -0.901100
     11 C6           5.8460     1.1490     5.0600 c3         1 9RT       0.191500
     12 C7           7.3010     1.0770     5.4430 ca         1 9RT       0.394600
     13 C8           8.2090     0.5040     4.5730 ca         1 9RT      -0.241300
     14 C9           9.5460     0.4420     4.9350 ca         1 9RT      -0.090000
     15 C10          9.9210     0.9620     6.1640 ca         1 9RT      -0.236300
     16 C11          8.9570     1.5200     6.9820 ca         1 9RT       0.427200
     17 N3           7.6940     1.5660     6.6030 nb         1 9RT      -0.671000
     18 C12          2.6640     1.1970     3.3750 ca         1 9RT      -0.014500
     19 C13          2.2080     1.1970     2.0690 ca         1 9RT      -0.125000
     20 H1          -0.3340    -0.0020    -0.9440 hn         1 9RT       0.457467
     21 H2          -0.3340    -0.8160     0.4730 hn         1 9RT       0.457467
     22 H4           1.8300    -0.8840    -0.5110 hx         1 9RT       0.114700
     23 H5           1.8300     0.8840    -0.5110 hx         1 9RT       0.114700
     24 H6           2.0220    -2.1350     1.5610 ha         1 9RT       0.141000
     25 H7           2.8430    -2.1360     3.8860 ha         1 9RT       0.178500
     26 H8           5.6480    -0.7790     5.9860 hn         1 9RT       0.471800
     27 H9           5.4160     2.0660     5.4460 h1         1 9RT       0.056700
     28 H10          5.7550     1.1350     3.9800 h1         1 9RT       0.056700
     29 H11          7.8790     0.1080     3.6200 ha         1 9RT       0.134000
     30 H12         10.2800    -0.0010     4.2730 ha         1 9RT       0.146000
     31 H13         10.9570     0.9290     6.4810 ha         1 9RT       0.150000
     32 H14          9.2430     1.9300     7.9430 h4         1 9RT       0.036100
     33 H15          2.8460     2.1350     3.8850 ha         1 9RT       0.178500
     34 H16          2.0290     2.1350     1.5580 ha         1 9RT       0.141000
     35 H131        -0.3340     0.8410     0.4280 hn         1 9RT       0.457467
@<TRIPOS>BOND
     1    16    15 ar
     2    16    17 ar
     3    15    14 ar
     4     9     7 2
     5    17    12 ar
     6    14    13 ar
     7    12    13 ar
     8    12    11 1
     9    10     7 1
    10    10    11 1
    11     7     8 2
    12     7     6 1
    13    18     6 ar
    14    18    19 ar
    15     6     5 ar
    16    19     3 ar
    17     5     4 ar
    18     3     4 ar
    19     3     2 1
    20     1     2 1
    21     1    20 1
    22     1    21 1
    23     2    22 1
    24     2    23 1
    25     4    24 1
    26     5    25 1
    27    10    26 1
    28    11    27 1
    29    11    28 1
    30    13    29 1
    31    14    30 1
    32    15    31 1
    33    16    32 1
    34    18    33 1
    35    19    34 1
    36    35     1 1
@<TRIPOS>SUBSTRUCTURE
     1 9RT         1 TEMP              0 ****  ****    0 ROOT
