@<TRIPOS>MOLECULE
9RT
   35    36     1     0     0
SMALL
bcc


@<TRIPOS>ATOM
      1 N1           0.0000     0.0000     0.0000 nz         1 9RT       0.080400
      2 C1           1.4690     0.0000     0.0000 c3         1 9RT       0.032100
      3 C2           1.9720     0.0000     1.4200 ca         1 9RT      -0.170300
      4 C3           2.2020    -1.1970     2.0720 ca         1 9RT      -0.102000
      5 C4           2.6630    -1.1980     3.3750 ca         1 9RT       0.026500
      6 C5           2.8930     0.0000     4.0270 ca         1 9RT      -0.120500
      7 S1           3.4790     0.0000     5.6890 sy         1 9RT       1.038200
      8 O1           3.1000     1.2500     6.2480 o          1 9RT      -0.565800
      9 O2           3.0990    -1.2500     6.2480 o          1 9RT      -0.565800
     10 N2           5.1340    -0.0000     5.6250 n7         1 9RT      -0.566100
     11 C6           5.8460     1.1490     5.0600 c3         1 9RT       0.186500
     12 C7           7.3010     1.0770     5.4430 ca         1 9RT       0.331600
     13 C8           8.2090     0.5040     4.5730 ca         1 9RT      -0.207300
     14 C9           9.5460     0.4420     4.9350 ca         1 9RT      -0.065000
     15 C10          9.9210     0.9620     6.1640 ca         1 9RT      -0.200300
     16 C11          8.9570     1.5200     6.9820 ca         1 9RT       0.408200
     17 N3           7.6940     1.5660     6.6030 nb         1 9RT      -0.550000
     18 C12          2.6640     1.1970     3.3750 ca         1 9RT       0.026500
     19 C13          2.2080     1.1970     2.0690 ca         1 9RT      -0.102000
     20 H1          -0.3340    -0.0020    -0.9440 hn         1 9RT       0.224133
     21 H2          -0.3340    -0.8160     0.4730 hn         1 9RT       0.224133
     22 H4           1.8300    -0.8840    -0.5110 hx         1 9RT       0.082700
     23 H5           1.8300     0.8840    -0.5110 hx         1 9RT       0.082700
     24 H6           2.0220    -2.1350     1.5610 ha         1 9RT       0.113500
     25 H7           2.8430    -2.1360     3.8860 ha         1 9RT       0.144500
     26 H8           5.6480    -0.7790     5.9860 hn         1 9RT       0.363800
     27 H9           5.4160     2.0660     5.4460 h1         1 9RT       0.017700
     28 H10          5.7550     1.1350     3.9800 h1         1 9RT       0.017700
     29 H11          7.8790     0.1080     3.6200 ha         1 9RT       0.109000
     30 H12         10.2800    -0.0010     4.2730 ha         1 9RT       0.114000
     31 H13         10.9570     0.9290     6.4810 ha         1 9RT       0.121000
     32 H14          9.2430     1.9300     7.9430 h4         1 9RT      -0.010900
     33 H15          2.8460     2.1350     3.8850 ha         1 9RT       0.144500
     34 H16          2.0290     2.1350     1.5580 ha         1 9RT       0.113500
     35 H131        -0.3340     0.8410     0.4280 hn         1 9RT       0.224133
@<TRIPOS>BOND
     1     1     2 1   
     2     1    20 1   
     3     1    21 1   
     4     1    35 1   
     5     2     3 1   
     6     2    22 1   
     7     2    23 1   
     8     3     4 ar  
     9     3    19 ar  
    10     4     5 ar  
    11     4    24 1   
    12     5     6 ar  
    13     5    25 1   
    14     6     7 1   
    15     6    18 ar  
    16     7     8 2   
    17     7     9 2   
    18     7    10 1   
    19    10    11 1   
    20    10    26 1   
    21    11    12 1   
    22    11    27 1   
    23    11    28 1   
    24    12    13 ar  
    25    12    17 ar  
    26    13    14 ar  
    27    13    29 1   
    28    14    15 ar  
    29    14    30 1   
    30    15    16 ar  
    31    15    31 1   
    32    16    17 ar  
    33    16    32 1   
    34    18    19 ar  
    35    18    33 1   
    36    19    34 1   
@<TRIPOS>SUBSTRUCTURE
     1 9RT         1 TEMP              0 ****  ****    0 ROOT
