@<TRIPOS>MOLECULE
molecule
   52    55     1     0     0
SMALL
bcc


@<TRIPOS>ATOM
      1 N3           0.0000     0.0000     0.0000 na         1 9RV       0.134300
      2 C4           3.1630     0.0010     1.8100 cc         1 9RV       0.046700
      3 C7           0.6030     0.0000     2.1190 cd         1 9RV       0.357200
      4 C8           4.1810    -0.7120     1.2670 cd         1 9RV      -0.176200
      5 C10          5.3750    -0.4160     2.0560 ca         1 9RV      -0.229100
      6 C13         -2.0260    -0.6850    -1.1250 ca         1 9RV      -0.104000
      7 C20          6.7070    -0.8230     2.0080 ca         1 9RV       0.468200
      8 C21         -4.1400    -1.4290    -2.2360 c3         1 9RV       0.161300
      9 C22         -0.4320     0.6990    -2.2730 ca         1 9RV      -0.129000
     10 C24         -1.2440     0.7030    -3.3900 ca         1 9RV      -0.118000
     11 C26         -2.4380     0.0060    -3.3810 ca         1 9RV      -0.114000
     12 C28         -5.8330    -7.2680    -3.7130 c3         1 9RV      -0.087400
     13 C1           1.7660     0.0000     1.3230 cd         1 9RV      -0.271100
     14 C2           1.3600     0.0000     0.0000 cc         1 9RV       0.136800
     15 N5          -0.4370    -0.0000     1.3300 nc         1 9RV      -0.487800
     16 N6           3.6260     0.7200     2.8870 na         1 9RV      -0.173400
     17 C9          -0.8210     0.0040    -1.1350 ca         1 9RV       0.012800
     18 C11          4.9690     0.4910     3.0580 ca         1 9RV      -0.011200
     19 C12         -4.9570    -3.6610    -2.7700 c          1 9RV       0.655100
     20 N14         -3.9220    -2.8030    -2.6970 ns         1 9RV      -0.589900
     21 O15          2.1640    -0.0020    -1.0910 oh         1 9RV      -0.477100
     22 N16          7.5710    -0.3640     2.8900 nb         1 9RV      -0.711000
     23 O17         -6.0710    -3.2980    -2.4550 o          1 9RV      -0.607100
     24 C18          5.9270     0.9410     3.9620 ca         1 9RV      -0.269300
     25 C19         -2.8310    -0.6820    -2.2470 ca         1 9RV      -0.107300
     26 C23          7.2230     0.4870     3.8400 ca         1 9RV       0.428200
     27 C25         -4.7330    -5.0750    -3.2440 c3         1 9RV      -0.157400
     28 C27         -6.0610    -5.8340    -3.2330 c3         1 9RV      -0.066400
     29 C29         -7.1630    -8.0270    -3.7030 c3         1 9RV      -0.090100
     30 H1           0.5770     0.0010     3.2020 h4         1 9RV       0.056100
     31 H2           4.1580    -1.2320     0.3160 ha         1 9RV       0.152000
     32 H3          -2.3560    -1.1850    -0.2220 ha         1 9RV       0.160000
     33 H4           7.0330    -1.5200     1.2440 h4         1 9RV       0.023100
     34 H5          -4.8430    -0.9350    -2.8950 h1         1 9RV       0.063200
     35 H6          -4.5380    -1.4450    -1.2290 h1         1 9RV       0.063200
     36 H7           0.5040     1.2450    -2.2810 ha         1 9RV       0.158000
     37 H8          -0.9390     1.2430    -4.2790 ha         1 9RV       0.143000
     38 H9          -3.0720     0.0090    -4.2590 ha         1 9RV       0.141000
     39 H10         -5.4350    -7.2530    -4.7200 hc         1 9RV       0.037200
     40 H11         -5.1300    -7.7630    -3.0540 hc         1 9RV       0.037200
     41 H13          3.0690     1.3250     3.4580 hn         1 9RV       0.299700
     42 H14         -3.0030    -3.1050    -2.9550 hn         1 9RV       0.315500
     43 H15          5.6590     1.6380     4.7470 ha         1 9RV       0.132000
     44 H16          7.9730     0.8340     4.5400 h4         1 9RV       0.022100
     45 H17         -4.3350    -5.0590    -4.2510 hc         1 9RV       0.058200
     46 H18         -4.0290    -5.5690    -2.5850 hc         1 9RV       0.058200
     47 H19         -6.7650    -5.3400    -3.8910 hc         1 9RV       0.059200
     48 H20         -6.4590    -5.8500    -2.2250 hc         1 9RV       0.059200
     49 H21         -7.8660    -7.5330    -4.3620 hc         1 9RV       0.034367
     50 H22         -7.5610    -8.0420    -2.6960 hc         1 9RV       0.034367
     51 H23         -7.0010    -9.0430    -4.0430 hc         1 9RV       0.034367
     52 H12          2.2980    -0.8880    -1.3820 ho         1 9RV       0.433000
@<TRIPOS>BOND
     1    11    10 ar
     2    11    25 ar
     3     8    25 1
     4     8    20 1
     5    10     9 ar
     6    25     6 ar
     7    20    19 1
     8    23    19 2
     9    19    27 1
    10     9    17 ar
    11     6    17 ar
    12    27    28 1
    13    17     1 1
    14    28    12 1
    15     1    14 1
    16     1    15 1
    17    21    14 1
    18    12    29 1
    19    14    13 2
    20    15     3 2
    21    13     3 1
    22    13     2 1
    23    16     2 1
    24    16    18 1
    25     2     4 2
    26    18    24 ar
    27    18     5 ar
    28    24    26 ar
    29     4     5 1
    30     5     7 ar
    31    26    22 ar
    32     7    22 ar
    33     3    30 1
    34     4    31 1
    35     6    32 1
    36     7    33 1
    37     8    34 1
    38     8    35 1
    39     9    36 1
    40    10    37 1
    41    11    38 1
    42    12    39 1
    43    12    40 1
    44    16    41 1
    45    20    42 1
    46    24    43 1
    47    26    44 1
    48    27    45 1
    49    27    46 1
    50    28    47 1
    51    28    48 1
    52    29    49 1
    53    29    50 1
    54    29    51 1
    55    21    52 1
@<TRIPOS>SUBSTRUCTURE
     1 9RV         1 TEMP              0 ****  ****    0 ROOT
