@<TRIPOS>MOLECULE
molecule
   20    20     1     0     0
SMALL
bcc


@<TRIPOS>ATOM
      1 OE1          0.0000     0.0000     0.0000 o          1 9RW      -0.843300
      2 CD           1.2080     0.0000     0.0000 c          1 9RW       0.895600
      3 OE2          1.8790     0.0000     1.1630 o          1 9RW      -0.843300
      4 CG           1.9620    -0.0070    -1.3050 c3         1 9RW      -0.143400
      5 C3           2.8420    -1.2560    -1.3790 c3         1 9RW      -0.059100
      6 CB           0.9840    -0.0120    -2.4510 ca         1 9RW      -0.014300
      7 CA           0.9900     1.0200    -3.3690 ca         1 9RW      -0.112000
      8 C            0.0920     1.0160    -4.4210 ca         1 9RW      -0.145000
      9 C7          -0.8120    -0.0220    -4.5520 ca         1 9RW      -0.161000
     10 C8          -0.8180    -1.0550    -3.6340 ca         1 9RW      -0.145000
     11 C9           0.0830    -1.0520    -2.5850 ca         1 9RW      -0.112000
     12 H2           2.5850     0.8770    -1.3660 hc         1 9RW       0.045700
     13 H3           3.1630    -1.4110    -2.4020 hc         1 9RW       0.021367
     14 H4           2.2750    -2.1170    -1.0440 hc         1 9RW       0.021367
     15 H5           3.7090    -1.1250    -0.7440 hc         1 9RW       0.021367
     16 H6           1.6990     1.8330    -3.2660 ha         1 9RW       0.130000
     17 H7           0.0970     1.8250    -5.1410 ha         1 9RW       0.105500
     18 H8          -1.5170    -0.0250    -5.3750 ha         1 9RW       0.101000
     19 H9          -1.5260    -1.8690    -3.7380 ha         1 9RW       0.105500
     20 H10          0.0790    -1.8610    -1.8650 ha         1 9RW       0.130000
@<TRIPOS>BOND
     1     9     8 ar
     2     9    10 ar
     3     8     7 ar
     4    10    11 ar
     5     7     6 ar
     6    11     6 ar
     7     6     4 1
     8     5     4 1
     9     4     2 1
    10     2     1 1
    11     2     3 1
    12     4    12 1
    13     5    13 1
    14     5    14 1
    15     5    15 1
    16     7    16 1
    17     8    17 1
    18     9    18 1
    19    10    19 1
    20    11    20 1
@<TRIPOS>SUBSTRUCTURE
     1 9RW         1 TEMP              0 ****  ****    0 ROOT
