@<TRIPOS>MOLECULE
9RY
   51    55     1     0     0
SMALL
bcc


@<TRIPOS>ATOM
      1 N3           0.0000     0.0000     0.0000 na         1 9RY       0.607300
      2 C4           3.1630     0.0000     1.8080 cc         1 9RY      -0.127300
      3 C7           5.3560    -0.4830     1.9450 ca         1 9RY       0.252800
      4 C8           0.6030     0.0000     2.1200 cc         1 9RY       0.438200
      5 C10          5.0470     0.4160     2.9900 ca         1 9RY      -0.347400
      6 C17         -2.0280    -0.6840    -1.1240 ca         1 9RY      -0.062000
      7 C20          7.5340    -0.5120     2.6740 ca         1 9RY       0.634900
      8 C21          6.0670     0.8120     3.8550 ca         1 9RY       0.501200
      9 C22         -2.8390    -0.6720    -2.2410 ca         1 9RY      -0.117300
     10 C24         -8.7440    -0.6780    -1.0100 ca         1 9RY      -0.072400
     11 C26         -1.2470     0.7040    -3.3890 ca         1 9RY      -0.090000
     12 C28         -9.8510     0.1320    -1.2310 ca         1 9RY      -0.120500
     13 C1           1.7670     0.0000     1.3220 cc         1 9RY      -0.282100
     14 C2           1.3590     0.0000     0.0000 cd         1 9RY      -0.040200
     15 N5          -0.4360     0.0010     1.3300 nd         1 9RY      -0.651800
     16 N6           4.1980    -0.7180     1.2520 na         1 9RY       0.276900
     17 C9           3.6230     0.7130     2.8680 cd         1 9RY      -0.132200
     18 C11         -0.8220     0.0050    -1.1340 ca         1 9RY      -0.162200
     19 C12         -6.4760    -0.9900    -1.6560 c          1 9RY       0.566100
     20 N13          6.6070    -0.9160     1.8310 nb         1 9RY      -0.629000
     21 N14         -7.4540    -0.1750    -1.2140 ns         1 9RY      -0.051100
     22 N15         -5.2110    -0.5340    -1.7510 ns         1 9RY      -0.221900
     23 N16          7.2820     0.3270     3.6620 nb         1 9RY      -0.659000
     24 O18         -6.7330    -2.1360    -1.9690 o          1 9RY      -0.692100
     25 O19          2.1630    -0.0000    -1.0920 oh         1 9RY      -0.456100
     26 C25         -0.4330     0.7010    -2.2720 ca         1 9RY      -0.094000
     27 C27         -2.4510     0.0260    -3.3710 ca         1 9RY      -0.074000
     28 C29         -8.9210    -1.9870    -0.5800 ca         1 9RY      -0.120500
     29 C30        -11.1220    -0.3660    -1.0240 ca         1 9RY      -0.082000
     30 C31        -10.1940    -2.4790    -0.3740 ca         1 9RY      -0.082000
     31 C32        -11.2950    -1.6690    -0.5950 ca         1 9RY      -0.118000
     32 H1           0.5760     0.0010     3.2030 h4         1 9RY       0.014100
     33 H2          -2.3150    -1.2600    -0.2530 ha         1 9RY       0.132000
     34 H3           8.5440    -0.8850     2.5520 h5         1 9RY      -0.002900
     35 H4           5.8680     1.5000     4.6680 h4         1 9RY      -0.017900
     36 H5          -0.9450     1.2480    -4.2760 ha         1 9RY       0.112000
     37 H6          -9.7160     1.1530    -1.5680 ha         1 9RY       0.121500
     38 H8           4.1160    -1.3240     0.4590 hn         1 9RY       0.115700
     39 H9           3.0910     1.5050     3.3820 ha         1 9RY       0.136000
     40 H10         -7.2550     0.7850    -1.0160 hn         1 9RY       0.160500
     41 H11         -4.9990     0.4100    -1.4940 hn         1 9RY       0.172500
     42 H12         -4.0680    -2.2760    -1.5730 h1         1 9RY       0.030700
     43 H13         -4.3800    -1.7530    -3.2330 h1         1 9RY       0.030700
     44 H14          0.5110     1.2330    -2.2870 ha         1 9RY       0.131000
     45 H15         -3.0880     0.0320    -4.2470 ha         1 9RY       0.113000
     46 H16         -8.0600    -2.6210    -0.4070 ha         1 9RY       0.121500
     47 H17        -11.9850     0.2650    -1.1960 ha         1 9RY       0.102000
     48 H18        -10.3320    -3.5000    -0.0390 ha         1 9RY       0.102000
     49 H19        -12.2930    -2.0580    -0.4320 ha         1 9RY       0.102000
     50 H7           2.3080    -0.8880    -1.3750 ho         1 9RY       0.405000
     51 C23         -4.1470    -1.4190    -2.2300 c3         1 9RY       0.128300
@<TRIPOS>BOND
     1     1    14 1   
     2     1    15 1   
     3     1    18 1   
     4     2    13 1   
     5     2    16 1   
     6     2    17 2   
     7     3     5 ar  
     8     3    16 1   
     9     3    20 ar  
    10     4    13 1   
    11     4    15 2   
    12     4    32 1   
    13     5     8 ar  
    14     5    17 1   
    15     6     9 ar  
    16     6    18 ar  
    17     6    33 1   
    18     7    20 ar  
    19     7    23 ar  
    20     7    34 1   
    21     8    23 ar  
    22     8    35 1   
    23     9    27 ar  
    24     9    51 1   
    25    10    12 ar  
    26    10    21 1   
    27    10    28 ar  
    28    11    26 ar  
    29    11    27 ar  
    30    11    36 1   
    31    12    29 ar  
    32    12    37 1   
    33    13    14 2   
    34    14    25 1   
    35    16    38 1   
    36    17    39 1   
    37    18    26 ar  
    38    19    21 1   
    39    19    22 1   
    40    19    24 2   
    41    21    40 1   
    42    22    41 1   
    43    22    51 1   
    44    25    50 1   
    45    26    44 1   
    46    27    45 1   
    47    28    30 ar  
    48    28    46 1   
    49    29    31 ar  
    50    29    47 1   
    51    30    31 ar  
    52    30    48 1   
    53    31    49 1   
    54    42    51 1   
    55    43    51 1   
@<TRIPOS>SUBSTRUCTURE
     1 9RY         1 TEMP              0 ****  ****    0 ROOT
