@<TRIPOS>MOLECULE
molecule
   51    55     1     0     0
SMALL
bcc


@<TRIPOS>ATOM
      1 N3           0.0000     0.0000     0.0000 na         1 9RY       0.137300
      2 C4           3.1630     0.0000     1.8080 cc         1 9RY       0.052700
      3 C7           5.3560    -0.4830     1.9450 ca         1 9RY       0.494800
      4 C8           0.6030     0.0000     2.1200 cd         1 9RY       0.376200
      5 C10          5.0470     0.4160     2.9900 ca         1 9RY      -0.347400
      6 C17         -2.0280    -0.6840    -1.1240 ca         1 9RY      -0.101000
      7 C20          7.5340    -0.5120     2.6740 ca         1 9RY       0.695900
      8 C21          6.0670     0.8120     3.8550 ca         1 9RY       0.502200
      9 C22         -2.8390    -0.6720    -2.2410 ca         1 9RY      -0.110300
     10 C24         -8.7440    -0.6780    -1.0100 ca         1 9RY       0.073600
     11 C26         -1.2470     0.7040    -3.3890 ca         1 9RY      -0.118000
     12 C28         -9.8510     0.1320    -1.2310 ca         1 9RY      -0.146000
     13 C1           1.7670     0.0000     1.3220 cd         1 9RY      -0.271100
     14 C2           1.3590     0.0000     0.0000 cc         1 9RY       0.121800
     15 N5          -0.4360     0.0010     1.3300 nc         1 9RY      -0.490800
     16 N6           4.1980    -0.7180     1.2520 na         1 9RY      -0.271100
     17 C9           3.6230     0.7130     2.8680 cd         1 9RY      -0.169200
     18 C11         -0.8220     0.0050    -1.1340 ca         1 9RY       0.010800
     19 C12         -6.4760    -0.9900    -1.6560 c          1 9RY       0.782100
     20 N13          6.6070    -0.9160     1.8310 nb         1 9RY      -0.760000
     21 N14         -7.4540    -0.1750    -1.2140 ns         1 9RY      -0.491100
     22 N15         -5.2110    -0.5340    -1.7510 ns         1 9RY      -0.602900
     23 N16          7.2820     0.3270     3.6620 nb         1 9RY      -0.759000
     24 O18         -6.7330    -2.1360    -1.9690 o          1 9RY      -0.645100
     25 O19          2.1630    -0.0000    -1.0920 oh         1 9RY      -0.479100
     26 C25         -0.4330     0.7010    -2.2720 ca         1 9RY      -0.128000
     27 C27         -2.4510     0.0260    -3.3710 ca         1 9RY      -0.112000
     28 C29         -8.9210    -1.9870    -0.5800 ca         1 9RY      -0.146000
     29 C30        -11.1220    -0.3660    -1.0240 ca         1 9RY      -0.111000
     30 C31        -10.1940    -2.4790    -0.3740 ca         1 9RY      -0.111000
     31 C32        -11.2950    -1.6690    -0.5950 ca         1 9RY      -0.147000
     32 H1           0.5760     0.0010     3.2030 h4         1 9RY       0.064100
     33 H2          -2.3150    -1.2600    -0.2530 ha         1 9RY       0.159000
     34 H3           8.5440    -0.8850     2.5520 h5         1 9RY       0.060100
     35 H4           5.8680     1.5000     4.6680 h4         1 9RY       0.030100
     36 H5          -0.9450     1.2480    -4.2760 ha         1 9RY       0.144000
     37 H6          -9.7160     1.1530    -1.5680 ha         1 9RY       0.144500
     38 H8           4.1160    -1.3240     0.4590 hn         1 9RY       0.302700
     39 H9           3.0910     1.5050     3.3820 ha         1 9RY       0.162000
     40 H10         -7.2550     0.7850    -1.0160 hn         1 9RY       0.318500
     41 H11         -4.9990     0.4100    -1.4940 hn         1 9RY       0.313500
     42 H12         -4.0680    -2.2760    -1.5730 h1         1 9RY       0.062700
     43 H13         -4.3800    -1.7530    -3.2330 h1         1 9RY       0.062700
     44 H14          0.5110     1.2330    -2.2870 ha         1 9RY       0.158000
     45 H15         -3.0880     0.0320    -4.2470 ha         1 9RY       0.143000
     46 H16         -8.0600    -2.6210    -0.4070 ha         1 9RY       0.144500
     47 H17        -11.9850     0.2650    -1.1960 ha         1 9RY       0.131500
     48 H18        -10.3320    -3.5000    -0.0390 ha         1 9RY       0.131500
     49 H19        -12.2930    -2.0580    -0.4320 ha         1 9RY       0.129000
     50 H7           2.3080    -0.8880    -1.3750 ho         1 9RY       0.430000
     51 C23         -4.1470    -1.4190    -2.2300 c3         1 9RY       0.181300
@<TRIPOS>BOND
     1    27    11 ar
     2    27     9 ar
     3    51    22 1
     4    51     9 1
     5    22    19 1
     6    11    26 ar
     7    12    29 ar
     8    12    10 ar
     9     9     6 ar
    10    19    21 1
    11    19    24 2
    12    21    10 1
    13    29    31 ar
    14    10    28 ar
    15    26    18 ar
    16     6    18 ar
    17    31    30 ar
    18    28    30 ar
    19    18     1 1
    20     1    14 1
    21     1    15 1
    22    25    14 1
    23    14    13 2
    24    15     4 2
    25    13     4 1
    26    13     2 1
    27    16     2 1
    28    16     3 1
    29     2    17 2
    30     3    20 ar
    31     3     5 ar
    32    20     7 ar
    33    17     5 1
    34     5     8 ar
    35     7    23 ar
    36     8    23 ar
    37     4    32 1
    38     6    33 1
    39     7    34 1
    40     8    35 1
    41    11    36 1
    42    12    37 1
    43    16    38 1
    44    17    39 1
    45    21    40 1
    46    22    41 1
    47    51    42 1
    48    51    43 1
    49    26    44 1
    50    27    45 1
    51    28    46 1
    52    29    47 1
    53    30    48 1
    54    31    49 1
    55    25    50 1
@<TRIPOS>SUBSTRUCTURE
     1 9RY         1 TEMP              0 ****  ****    0 ROOT
