@<TRIPOS>MOLECULE
molecule
   67    71     1     0     0
SMALL
bcc


@<TRIPOS>ATOM
      1 C1           0.0000     0.0000     0.0000 c          1 9RZ       0.689700
      2 C7          -1.9630    -0.6760    -1.3860 ca         1 9RZ       0.224100
      3 C9          -2.1520     0.0050    -3.6790 ca         1 9RZ      -0.020200
      4 C10         -0.9240     0.6910    -3.5720 ca         1 9RZ      -0.228900
      5 C11         -0.7150     1.2740    -4.9050 cc         1 9RZ       0.316900
      6 C14          0.4270     2.0970    -5.3420 c          1 9RZ       0.629800
      7 C16         -0.6570     2.3730    -7.5180 c3         1 9RZ       0.063000
      8 C19          0.8850     4.8810    -7.4640 c3         1 9RZ       0.126100
      9 C20         -0.1360     4.5810    -8.5640 c3         1 9RZ      -0.080400
     10 C21         -1.2520     3.7000    -8.0010 c3         1 9RZ      -0.096400
     11 C24          2.0480    -0.1170     1.2080 ca         1 9RZ       0.031600
     12 C27          2.0520    -0.5010     3.5750 ca         1 9RZ      -0.164000
     13 C32          5.7970    -0.1750     4.3150 c3         1 9RZ       0.142300
     14 C33          6.5980    -0.3640     5.6060 c3         1 9RZ       0.134900
     15 C35          4.7120     0.3470     6.9010 c3         1 9RZ       0.134900
     16 N2           1.3480     0.0000     0.0000 n          1 9RZ      -0.368000
     17 O3          -0.6080     0.0000     1.0530 o          1 9RZ      -0.583100
     18 C4          -0.7370     0.0070    -1.2770 ca         1 9RZ      -0.197600
     19 C5          -0.2210     0.6910    -2.3760 ca         1 9RZ       0.001000
     20 C6          -2.6600    -0.6750    -2.5770 ca         1 9RZ      -0.262000
     21 N12         -1.7510     0.9150    -5.6320 nd         1 9RZ      -0.510100
     22 N13         -2.5810     0.1960    -4.9660 na         1 9RZ       0.022900
     23 O15          1.3730     2.2690    -4.5960 o          1 9RZ      -0.615100
     24 N17          0.4250     2.6590    -6.5670 n          1 9RZ      -0.471800
     25 C18          1.5050     3.5680    -6.9750 c3         1 9RZ       0.084000
     26 O22          1.9110     5.7290    -7.9830 os         1 9RZ      -0.422600
     27 C23          2.4950     6.5960    -7.0090 c3         1 9RZ       0.126700
     28 C25          3.4260     0.0510     1.2300 ca         1 9RZ      -0.139500
     29 C26          3.4320    -0.3460     3.5950 ca         1 9RZ       0.108600
     30 C28          4.1170    -0.0640     2.4200 ca         1 9RZ      -0.164000
     31 C29          1.3630    -0.3930     2.3840 ca         1 9RZ      -0.139500
     32 N31          4.3700    -0.3910     4.5920 nh         1 9RZ      -0.626000
     33 O34          6.0990     0.5300     6.6050 os         1 9RZ      -0.424600
     34 C36          3.8920     0.5420     5.6220 c3         1 9RZ       0.142300
     35 H1          -0.2600     1.8260    -8.3650 h1         1 9RZ       0.079700
     36 H2          -1.4260     1.7880    -7.0280 h1         1 9RZ       0.079700
     37 H3           0.3870     5.3730    -6.6370 h1         1 9RZ       0.045700
     38 H4          -0.5590     5.5100    -8.9260 hc         1 9RZ       0.054700
     39 H5           0.3550     4.0610    -9.3780 hc         1 9RZ       0.054700
     40 H7          -1.9840     3.5060    -8.7760 hc         1 9RZ       0.051200
     41 H6          -1.7260     4.2070    -7.1680 hc         1 9RZ       0.051200
     42 H8           1.5180    -0.7190     4.4920 ha         1 9RZ       0.139000
     43 H10          2.2240     1.1670    -1.4990 h1         1 9RZ       0.054033
     44 H11          1.5140    -0.3550    -2.0550 h1         1 9RZ       0.054033
     45 H9           3.0450    -0.3640    -1.1680 h1         1 9RZ       0.054033
     46 H13          6.1330    -0.8920     3.5750 h1         1 9RZ       0.050700
     47 H12          5.9440     0.8320     3.9430 h1         1 9RZ       0.050700
     48 H14          7.6430    -0.1480     5.4180 h1         1 9RZ       0.054450
     49 H15          6.4910    -1.3860     5.9510 h1         1 9RZ       0.054450
     50 H17          4.5540    -0.6550     7.2810 h1         1 9RZ       0.054450
     51 H16          4.4030     1.0740     7.6420 h1         1 9RZ       0.054450
     52 H18          0.6440     1.3330    -2.2560 ha         1 9RZ       0.177000
     53 H19         -3.6030    -1.2030    -2.6530 ha         1 9RZ       0.137000
     54 H20         -3.3790    -1.5070    -0.4450 ho         1 9RZ       0.424000
     55 HN13        -3.4310    -0.1760    -5.3390 hn         1 9RZ       0.336700
     56 H23          2.0740     3.1160    -7.7780 h1         1 9RZ       0.070200
     57 H22          2.1520     3.7650    -6.1290 h1         1 9RZ       0.070200
     58 H25          3.0620     7.3720    -7.5090 h1         1 9RZ       0.032700
     59 H26          1.7130     7.0490    -6.4120 h1         1 9RZ       0.032700
     60 H24          3.1540     6.0250    -6.3660 h1         1 9RZ       0.032700
     61 H27          3.9600     0.2710     0.3130 ha         1 9RZ       0.167000
     62 H28          5.1920     0.0620     2.4370 ha         1 9RZ       0.139000
     63 H29          0.2860    -0.5140     2.3680 ha         1 9RZ       0.167000
     64 H30          4.0110     1.5600     5.2700 h1         1 9RZ       0.050700
     65 H31          2.8480     0.3450     5.8300 h1         1 9RZ       0.050700
     66 O8          -2.4590    -1.3450    -0.3160 oh         1 9RZ      -0.462100
     67 C30          2.0800     0.1200    -1.2630 c3         1 9RZ       0.074300
@<TRIPOS>BOND
     1    67    16 1
     2    17     1 2
     3    16     1 1
     4    16    11 1
     5     1    18 1
     6    31    11 ar
     7    31    12 ar
     8    11    28 ar
     9    27    26 1
    10    26     8 1
    11    18    19 ar
    12    18     2 ar
    13    66     2 1
    14    12    29 ar
    15    28    30 ar
    16     9     8 1
    17     9    10 1
    18    19     4 ar
    19     2    20 ar
    20    25     8 1
    21    25    24 1
    22    29    30 ar
    23    29    32 1
    24     7    10 1
    25     7    24 1
    26    24     6 1
    27     4     3 ar
    28     4     5 1
    29    20     3 ar
    30    34    32 1
    31    34    15 1
    32    32    13 1
    33     3    22 1
    34     6     5 1
    35     6    23 2
    36     5    21 2
    37    15    33 1
    38    13    14 1
    39    22    21 1
    40    33    14 1
    41     7    35 1
    42     7    36 1
    43     8    37 1
    44     9    38 1
    45     9    39 1
    46    10    40 1
    47    10    41 1
    48    12    42 1
    49    67    43 1
    50    67    44 1
    51    67    45 1
    52    13    46 1
    53    13    47 1
    54    14    48 1
    55    14    49 1
    56    15    50 1
    57    15    51 1
    58    19    52 1
    59    20    53 1
    60    66    54 1
    61    22    55 1
    62    25    56 1
    63    25    57 1
    64    27    58 1
    65    27    59 1
    66    27    60 1
    67    28    61 1
    68    30    62 1
    69    31    63 1
    70    34    64 1
    71    34    65 1
@<TRIPOS>SUBSTRUCTURE
     1 9RZ         1 TEMP              0 ****  ****    0 ROOT
