@<TRIPOS>MOLECULE
molecule
   54    58     1     0     0
SMALL
bcc


@<TRIPOS>ATOM
      1 N3           0.0000     0.0000     0.0000 na         1 9S1       0.133300
      2 C4           3.1600    -0.0000     1.8120 cc         1 9S1       0.059700
      3 C7           4.1810    -0.7110     1.2710 cd         1 9S1      -0.311800
      4 C8           0.5990    -0.0020     2.1200 cd         1 9S1       0.358200
      5 C13         -4.9540    -3.6610    -2.7780 c          1 9S1       0.782100
      6 C17         -2.0270    -0.6850    -1.1280 ca         1 9S1      -0.103000
      7 C20          5.9350     0.9020     3.9460 ca         1 9S1      -0.064000
      8 C22          7.2320     0.4490     3.8020 ca         1 9S1      -0.297300
      9 C24         -4.1380    -1.4290    -2.2400 c3         1 9S1       0.180300
     10 C26         -0.4310     0.7010    -2.2730 ca         1 9S1      -0.127000
     11 C28         -2.4370     0.0090    -3.3820 ca         1 9S1      -0.114000
     12 C1           1.7650     0.0000     1.3240 cd         1 9S1      -0.272100
     13 C2           1.3580     0.0000     0.0000 cc         1 9S1       0.137800
     14 N5          -0.4380    -0.0010     1.3280 nc         1 9S1      -0.490800
     15 N6           3.6250     0.7160     2.8880 na         1 9S1      -0.170400
     16 C9           5.3510    -0.4370     2.0240 ca         1 9S1       0.484100
     17 N10          6.6130    -0.8590     1.9320 nb         1 9S1      -0.743000
     18 C11         -0.8210     0.0050    -1.1370 ca         1 9S1       0.013800
     19 C12          4.9740     0.4590     3.0420 ca         1 9S1      -0.214500
     20 C14          7.5390    -0.4460     2.7780 ca         1 9S1       0.692200
     21 N15         -4.7530    -4.9240    -3.2040 ns         1 9S1      -0.493100
     22 N16         -3.9190    -2.8020    -2.7030 ns         1 9S1      -0.601900
     23 O18         -6.0710    -3.2970    -2.4630 o          1 9S1      -0.646100
     24 O19          2.1640     0.0000    -1.0900 oh         1 9S1      -0.475100
     25 N21          8.8470    -0.8990     2.6350 nv         1 9S1      -1.020500
     26 C23         -2.8310    -0.6810    -2.2500 ca         1 9S1      -0.110300
     27 C25         -5.8070    -5.8450    -3.1910 ca         1 9S1       0.069600
     28 C27         -1.2430     0.7050    -3.3910 ca         1 9S1      -0.118000
     29 C29         -5.5610    -7.1800    -2.9000 ca         1 9S1      -0.144500
     30 C30         -7.1020    -5.4220    -3.4610 ca         1 9S1      -0.144500
     31 C31         -6.6040    -8.0850    -2.8870 ca         1 9S1      -0.113500
     32 C32         -8.1400    -6.3330    -3.4470 ca         1 9S1      -0.113500
     33 C33         -7.8920    -7.6640    -3.1640 ca         1 9S1      -0.146000
     34 H1           4.1040    -1.4080     0.4450 ha         1 9S1       0.154000
     35 H2           0.5710    -0.0020     3.2030 h4         1 9S1       0.056100
     36 H3          -2.3620    -1.1770    -0.2230 ha         1 9S1       0.161000
     37 H4           5.6740     1.5970     4.7350 ha         1 9S1       0.130000
     38 H5           8.0040     0.7790     4.4880 ha         1 9S1       0.134000
     39 H6          -4.5370    -1.4460    -1.2330 h1         1 9S1       0.064200
     40 H7          -4.8420    -0.9340    -2.8990 h1         1 9S1       0.064200
     41 H8           0.5050     1.2470    -2.2800 ha         1 9S1       0.159000
     42 H9          -3.0710     0.0120    -4.2600 ha         1 9S1       0.141000
     43 H11          3.0770     1.3230     3.4660 hn         1 9S1       0.297700
     44 H12         -3.8520    -5.2000    -3.5420 hn         1 9S1       0.316500
     45 H13         -2.9990    -3.1040    -2.9550 hn         1 9S1       0.310500
     46 H14          9.5570    -0.5880     3.2690 hn         1 9S1       0.436800
     47 H15          9.0780    -1.5390     1.9010 hn         1 9S1       0.436800
     48 H16         -0.9390     1.2460    -4.2790 ha         1 9S1       0.143000
     49 H17         -4.5530    -7.5110    -2.6830 ha         1 9S1       0.147500
     50 H18         -7.2970    -4.3800    -3.6830 ha         1 9S1       0.147500
     51 H19         -6.4120    -9.1280    -2.6630 ha         1 9S1       0.131000
     52 H20         -9.1510    -6.0050    -3.6610 ha         1 9S1       0.131000
     53 H21         -8.7080    -8.3760    -3.1530 ha         1 9S1       0.128000
     54 H10          2.3100    -0.8870    -1.3730 ho         1 9S1       0.434000
@<TRIPOS>BOND
     1    11    28 ar
     2    11    26 ar
     3     9    22 1
     4     9    26 1
     5    22     5 1
     6    28    10 ar
     7    29    31 ar
     8    29    27 ar
     9    26     6 ar
    10     5    21 1
    11     5    23 2
    12    21    27 1
    13    31    33 ar
    14    27    30 ar
    15    10    18 ar
    16     6    18 ar
    17    33    32 ar
    18    30    32 ar
    19    18     1 1
    20     1    13 1
    21     1    14 1
    22    24    13 1
    23    13    12 2
    24    14     4 2
    25    12     4 1
    26    12     2 1
    27    15     2 1
    28    15    19 1
    29     2     3 2
    30    19     7 ar
    31    19    16 ar
    32     7     8 ar
    33     3    16 1
    34    16    17 ar
    35     8    20 ar
    36    17    20 ar
    37    20    25 1
    38     3    34 1
    39     4    35 1
    40     6    36 1
    41     7    37 1
    42     8    38 1
    43     9    39 1
    44     9    40 1
    45    10    41 1
    46    11    42 1
    47    15    43 1
    48    21    44 1
    49    22    45 1
    50    25    46 1
    51    25    47 1
    52    28    48 1
    53    29    49 1
    54    30    50 1
    55    31    51 1
    56    32    52 1
    57    33    53 1
    58    24    54 1
@<TRIPOS>SUBSTRUCTURE
     1 9S1         1 TEMP              0 ****  ****    0 ROOT
