@<TRIPOS>MOLECULE
9S3
   69    73     1     0     0
SMALL
bcc


@<TRIPOS>ATOM
      1 O            0.0000     0.0000     0.0000 o          1 9S3      -0.629100
      2 C17          1.2130     0.0000     0.0000 c          1 9S3       0.582100
      3 C18          1.9670     0.0000     1.3040 c3         1 9S3      -0.131100
      4 N2           1.8860    -0.0060    -1.1680 n          1 9S3       0.011000
      5 C2           3.3360    -0.2370    -1.1930 c3         1 9S3       0.024700
      6 C1           3.7900    -0.8230     0.1460 c3         1 9S3      -0.081100
      7 C16          1.2120     0.2020    -2.3800 ca         1 9S3      -0.055400
      8 C11          1.8290    -0.0730    -3.5910 ca         1 9S3      -0.156300
      9 C4           3.2410    -0.5960    -3.6550 c3         1 9S3       0.203800
     10 N1           3.3350    -1.6040    -4.7130 nu         1 9S3      -0.420600
     11 C5           3.5620    -1.2110    -6.0340 ca         1 9S3       0.066600
     12 C10          3.6520    -2.1660    -7.0390 ca         1 9S3      -0.198000
     13 C9           3.8750    -1.7730    -8.3440 ca         1 9S3      -0.048000
     14 C8           4.0080    -0.4320    -8.6500 ca         1 9S3      -0.166000
     15 C7           3.9190     0.5210    -7.6530 ca         1 9S3      -0.048000
     16 C6           3.6910     0.1360    -6.3460 ca         1 9S3      -0.198000
     17 C3           3.6340    -1.2310    -2.3230 c3         1 9S3      -0.050400
     18 C15         -0.0900     0.6900    -2.3520 ca         1 9S3      -0.147000
     19 C14         -0.7770     0.9010    -3.5270 ca         1 9S3      -0.072000
     20 C13         -0.1620     0.6230    -4.7470 cp         1 9S3      -0.047000
     21 C12          1.1420     0.1350    -4.7720 ca         1 9S3      -0.099000
     22 C19         -0.8960     0.8460    -6.0180 cp         1 9S3      -0.025000
     23 C30         -2.2010     1.3330    -5.9940 ca         1 9S3      -0.104000
     24 C29         -2.8790     1.5390    -7.1780 ca         1 9S3      -0.088000
     25 C22         -2.2660     1.2620    -8.3870 ca         1 9S3      -0.094300
     26 C21         -0.9700     0.7780    -8.4160 ca         1 9S3      -0.088000
     27 C20         -0.2810     0.5740    -7.2370 ca         1 9S3      -0.104000
     28 C23         -3.0120     1.4880    -9.6760 c3         1 9S3       0.211100
     29 N3          -2.7720     2.8580   -10.1480 n3         1 9S3      -0.533600
     30 C28         -3.6610     3.1940   -11.2660 c3         1 9S3       0.145800
     31 C27         -3.4860     4.6690   -11.6340 c3         1 9S3      -0.023900
     32 C26         -2.0270     4.9220   -12.0260 c3         1 9S3      -0.027400
     33 C25         -1.1180     4.5190   -10.8610 c3         1 9S3      -0.023900
     34 C24         -1.3620     3.0490   -10.5140 c3         1 9S3       0.145800
     35 H181         2.3150    -1.0030     1.5200 hc         1 9S3       0.043700
     36 H182         1.3130     0.3340     2.1000 hc         1 9S3       0.043700
     37 H183         2.8160     0.6690     1.2300 hc         1 9S3       0.043700
     38 H2           3.8510     0.6970    -1.3830 h1         1 9S3       0.035700
     39 H11C         3.0290    -1.4950     0.5230 hc         1 9S3       0.036367
     40 H12C         3.9490    -0.0210     0.8560 hc         1 9S3       0.036367
     41 H13C         4.7150    -1.3690     0.0050 hc         1 9S3       0.036367
     42 H31C         4.6970    -1.4410    -2.3350 hc         1 9S3       0.034700
     43 H32C         3.0400    -2.1240    -2.1710 hc         1 9S3       0.034700
     44 H15         -0.5660     0.9060    -1.4030 ha         1 9S3       0.175000
     45 H4           3.9150     0.2240    -3.8720 h1         1 9S3       0.047700
     46 H12          1.6200    -0.0810    -5.7200 ha         1 9S3       0.146000
     47 H1           3.2290    -2.5750    -4.4910 hn         1 9S3       0.295800
     48 H10          3.5480    -3.2170    -6.7990 ha         1 9S3       0.117500
     49 H6           3.6210     0.8830    -5.5650 ha         1 9S3       0.117500
     50 H9           3.9460    -2.5170    -9.1290 ha         1 9S3       0.099500
     51 H8           4.1850    -0.1270    -9.6750 ha         1 9S3       0.104000
     52 H7           4.0220     1.5720    -7.8980 ha         1 9S3       0.099500
     53 H14         -1.7910     1.2810    -3.5040 ha         1 9S3       0.114000
     54 H30         -2.6820     1.5510    -5.0480 ha         1 9S3       0.115500
     55 H20          0.7340     0.1950    -7.2610 ha         1 9S3       0.115500
     56 H29         -3.8940     1.9180    -7.1610 ha         1 9S3       0.106500
     57 H21         -0.4930     0.5650    -9.3650 ha         1 9S3       0.106500
     58 H231        -2.6650     0.7830   -10.4220 h1         1 9S3       0.011200
     59 H232        -4.0730     1.3450    -9.5090 h1         1 9S3       0.011200
     60 H281        -4.6890     3.0160   -10.9730 h1         1 9S3       0.010950
     61 H282        -3.4130     2.5770   -12.1210 h1         1 9S3       0.010950
     62 H241        -1.1270     2.4330   -11.3740 h1         1 9S3       0.010950
     63 H242        -0.7320     2.7680    -9.6790 h1         1 9S3       0.010950
     64 H271        -3.7430     5.2870   -10.7820 hc         1 9S3       0.018700
     65 H272        -4.1300     4.9110   -12.4710 hc         1 9S3       0.018700
     66 H261        -1.8890     5.9740   -12.2430 hc         1 9S3       0.011200
     67 H262        -1.7790     4.3310   -12.8990 hc         1 9S3       0.011200
     68 H251        -1.3420     5.1350    -9.9990 hc         1 9S3       0.018700
     69 H252        -0.0820     4.6540   -11.1490 hc         1 9S3       0.018700
@<TRIPOS>BOND
     1     1     2 2   
     2     2     3 1   
     3     2     4 1   
     4     3    35 1   
     5     3    36 1   
     6     3    37 1   
     7     4     5 1   
     8     4     7 1   
     9     5     6 1   
    10     5    17 1   
    11     5    38 1   
    12     6    39 1   
    13     6    40 1   
    14     6    41 1   
    15     7     8 ar  
    16     7    18 ar  
    17     8     9 1   
    18     8    21 ar  
    19     9    10 1   
    20     9    17 1   
    21     9    45 1   
    22    10    11 1   
    23    10    47 1   
    24    11    12 ar  
    25    11    16 ar  
    26    12    13 ar  
    27    12    48 1   
    28    13    14 ar  
    29    13    50 1   
    30    14    15 ar  
    31    14    51 1   
    32    15    16 ar  
    33    15    52 1   
    34    16    49 1   
    35    17    42 1   
    36    17    43 1   
    37    18    19 ar  
    38    18    44 1   
    39    19    20 ar  
    40    19    53 1   
    41    20    21 ar  
    42    20    22 1   
    43    21    46 1   
    44    22    23 ar  
    45    22    27 ar  
    46    23    24 ar  
    47    23    54 1   
    48    24    25 ar  
    49    24    56 1   
    50    25    26 ar  
    51    25    28 1   
    52    26    27 ar  
    53    26    57 1   
    54    27    55 1   
    55    28    29 1   
    56    28    58 1   
    57    28    59 1   
    58    29    30 1   
    59    29    34 1   
    60    30    31 1   
    61    30    60 1   
    62    30    61 1   
    63    31    32 1   
    64    31    64 1   
    65    31    65 1   
    66    32    33 1   
    67    32    66 1   
    68    32    67 1   
    69    33    34 1   
    70    33    68 1   
    71    33    69 1   
    72    34    62 1   
    73    34    63 1   
@<TRIPOS>SUBSTRUCTURE
     1 9S3         1 TEMP              0 ****  ****    0 ROOT
