@<TRIPOS>MOLECULE
molecule
   37    37     1     0     0
SMALL
bcc


@<TRIPOS>ATOM
      1 O1B          0.0000     0.0000     0.0000 o          1 9S7      -0.817300
      2 C1           1.2080     0.0000     0.0000 c          1 9S7       0.904600
      3 O1A          1.8790     0.0000     1.1630 o          1 9S7      -0.817300
      4 C2           1.9620    -0.0070    -1.3050 c3         1 9S7       0.005100
      5 C3           2.7450     1.3000    -1.4480 c3         1 9S7       0.142600
      6 F1           1.8640     2.3840    -1.3770 f          1 9S7      -0.219300
      7 O6           1.0380    -0.1290    -2.3880 os         1 9S7      -0.349600
      8 C6           1.6530    -0.1730    -3.6770 c3         1 9S7       0.133100
      9 C7           0.5750    -0.3320    -4.7520 c3         1 9S7       0.164100
     10 C8          -0.2750    -1.5650    -4.4410 c3         1 9S7      -0.101400
     11 C9          -1.2710    -1.7970    -5.5790 c3         1 9S7       0.136400
     12 O9          -2.0650    -2.9500    -5.2900 oh         1 9S7      -0.604800
     13 O7          -0.2580     0.8300    -4.7670 oh         1 9S7      -0.570800
     14 C5           2.4240     1.1280    -3.9160 c3         1 9S7       0.089700
     15 C4           3.4600     1.3110    -2.8040 c3         1 9S7       0.093100
     16 O4           4.1340     2.5590    -2.9780 oh         1 9S7      -0.578800
     17 N5           3.1030     1.0640    -5.2140 ns         1 9S7      -0.587900
     18 C10          3.4090     2.2000    -5.8700 c          1 9S7       0.650100
     19 O10          3.1230     3.2760    -5.3890 o          1 9S7      -0.575100
     20 C11          4.1080     2.1330    -7.2040 c3         1 9S7      -0.174100
     21 H2           2.6510    -0.8430    -1.3240 h1         1 9S7       0.029700
     22 H3           3.4780     1.3700    -0.6540 h1         1 9S7       0.070700
     23 H4           2.3390    -1.0100    -3.7200 h1         1 9S7       0.020700
     24 H5           1.0450    -0.4520    -5.7200 h1         1 9S7       0.012700
     25 H6           0.3680    -2.4310    -4.3420 hc         1 9S7       0.082200
     26 H7          -0.8140    -1.4080    -3.5150 hc         1 9S7       0.082200
     27 H8          -1.9150    -0.9310    -5.6770 h1         1 9S7       0.009700
     28 H9          -0.7320    -1.9530    -6.5050 h1         1 9S7       0.009700
     29 H10         -2.6470    -3.1200    -6.0120 ho         1 9S7       0.389000
     30 H11         -0.4780     1.0470    -5.6570 ho         1 9S7       0.383000
     31 H12          1.7340     1.9630    -3.9060 h1         1 9S7       0.132700
     32 H13          4.1760     0.4990    -2.8410 h1         1 9S7       0.021700
     33 H14          4.9460     2.5480    -2.4980 ho         1 9S7       0.387000
     34 H15          3.3860     0.1790    -5.5870 hn         1 9S7       0.295500
     35 H16          4.3740     3.1330    -7.5230 hc         1 9S7       0.050367
     36 H17          5.0050     1.5320    -7.1130 hc         1 9S7       0.050367
     37 H18          3.4470     1.6840    -7.9360 hc         1 9S7       0.050367
@<TRIPOS>BOND
     1    20    18 1
     2    12    11 1
     3    17    18 1
     4    17    14 1
     5    18    19 2
     6    10    11 1
     7    10     9 1
     8     9     8 1
     9     9    13 1
    10     8    14 1
    11     8     7 1
    12    15    14 1
    13    15    16 1
    14    15     5 1
    15     7     4 1
    16     5     4 1
    17     5     6 1
    18     4     2 1
    19     2     1 1
    20     2     3 1
    21     4    21 1
    22     5    22 1
    23     8    23 1
    24     9    24 1
    25    10    25 1
    26    10    26 1
    27    11    27 1
    28    11    28 1
    29    12    29 1
    30    13    30 1
    31    14    31 1
    32    15    32 1
    33    16    33 1
    34    17    34 1
    35    20    35 1
    36    20    36 1
    37    20    37 1
@<TRIPOS>SUBSTRUCTURE
     1 9S7         1 TEMP              0 ****  ****    0 ROOT
