@<TRIPOS>MOLECULE
9S7
   37    37     1     0     0
SMALL
bcc


@<TRIPOS>ATOM
      1 O1B          0.0000     0.0000     0.0000 o          1 9S7      -0.871300
      2 C1           1.2080     0.0000     0.0000 c          1 9S7       0.981600
      3 O1A          1.8790     0.0000     1.1630 o          1 9S7      -0.871300
      4 C2           1.9620    -0.0070    -1.3050 c3         1 9S7       0.038100
      5 C3           2.7450     1.3000    -1.4480 c3         1 9S7       0.153600
      6 F1           1.8640     2.3840    -1.3770 f          1 9S7      -0.214300
      7 O6           1.0380    -0.1290    -2.3880 os         1 9S7      -0.327600
      8 C6           1.6530    -0.1730    -3.6770 c3         1 9S7       0.154100
      9 C7           0.5750    -0.3320    -4.7520 c3         1 9S7       0.198100
     10 C8          -0.2750    -1.5650    -4.4410 c3         1 9S7      -0.070400
     11 C9          -1.2710    -1.7970    -5.5790 c3         1 9S7       0.222400
     12 O9          -2.0650    -2.9500    -5.2900 oh         1 9S7      -0.585800
     13 O7          -0.2580     0.8300    -4.7670 oh         1 9S7      -0.549800
     14 C5           2.4240     1.1280    -3.9160 c3         1 9S7      -0.027300
     15 C4           3.4600     1.3110    -2.8040 c3         1 9S7       0.138100
     16 O4           4.1340     2.5590    -2.9780 oh         1 9S7      -0.556800
     17 N5           3.1030     1.0640    -5.2140 ns         1 9S7      -0.195900
     18 C10          3.4090     2.2000    -5.8700 c          1 9S7       0.560100
     19 O10          3.1230     3.2760    -5.3890 o          1 9S7      -0.614100
     20 C11          4.1080     2.1330    -7.2040 c3         1 9S7      -0.071100
     21 H2           2.6510    -0.8430    -1.3240 h1         1 9S7       0.006700
     22 H3           3.4780     1.3700    -0.6540 h1         1 9S7       0.044700
     23 H4           2.3390    -1.0100    -3.7200 h1         1 9S7      -0.003300
     24 H5           1.0450    -0.4520    -5.7200 h1         1 9S7      -0.019300
     25 H6           0.3680    -2.4310    -4.3420 hc         1 9S7       0.051700
     26 H7          -0.8140    -1.4080    -3.5150 hc         1 9S7       0.051700
     27 H8          -1.9150    -0.9310    -5.6770 h1         1 9S7      -0.023800
     28 H9          -0.7320    -1.9530    -6.5050 h1         1 9S7      -0.023800
     29 H10         -2.6470    -3.1200    -6.0120 ho         1 9S7       0.376000
     30 H11         -0.4780     1.0470    -5.6570 ho         1 9S7       0.368000
     31 H12          1.7340     1.9630    -3.9060 h1         1 9S7       0.109700
     32 H13          4.1760     0.4990    -2.8410 h1         1 9S7      -0.004300
     33 H14          4.9460     2.5480    -2.4980 ho         1 9S7       0.374000
     34 H15          3.3860     0.1790    -5.5870 hn         1 9S7       0.158500
     35 H16          4.3740     3.1330    -7.5230 hc         1 9S7       0.013700
     36 H17          5.0050     1.5320    -7.1130 hc         1 9S7       0.013700
     37 H18          3.4470     1.6840    -7.9360 hc         1 9S7       0.013700
@<TRIPOS>BOND
     1     1     2 1   
     2     2     3 1   
     3     2     4 1   
     4     4     5 1   
     5     4     7 1   
     6     4    21 1   
     7     5     6 1   
     8     5    15 1   
     9     5    22 1   
    10     7     8 1   
    11     8     9 1   
    12     8    14 1   
    13     8    23 1   
    14     9    10 1   
    15     9    13 1   
    16     9    24 1   
    17    10    11 1   
    18    10    25 1   
    19    10    26 1   
    20    11    12 1   
    21    11    27 1   
    22    11    28 1   
    23    12    29 1   
    24    13    30 1   
    25    14    15 1   
    26    14    17 1   
    27    14    31 1   
    28    15    16 1   
    29    15    32 1   
    30    16    33 1   
    31    17    18 1   
    32    17    34 1   
    33    18    19 2   
    34    18    20 1   
    35    20    35 1   
    36    20    36 1   
    37    20    37 1   
@<TRIPOS>SUBSTRUCTURE
     1 9S7         1 TEMP              0 ****  ****    0 ROOT
