@<TRIPOS>MOLECULE
molecule
   11    10     1     0     0
SMALL
bcc


@<TRIPOS>ATOM
      1 C1           0.0000     0.0000     0.0000 c3         1 9SB       0.056000
      2 C2           1.5300     0.0000     0.0000 c3         1 9SB      -0.258600
      3 Br1         -0.6550     0.0000     1.8530 br         1 9SB      -0.256400
      4 S2           2.1340    -0.0000    -1.7100 s6         1 9SB       1.245800
      5 O1S          1.8380     1.2370    -2.3450 o          1 9SB      -0.700867
      6 O2S          3.6510    -0.0000    -1.5770 o          1 9SB      -0.700867
      7 O3S          1.8390    -1.2370    -2.3440 o          1 9SB      -0.700867
      8 H1          -0.3610     0.8850    -0.5110 h1         1 9SB       0.070700
      9 H2          -0.3610    -0.8850    -0.5110 h1         1 9SB       0.070700
     10 H3           1.8910    -0.8850     0.5110 h1         1 9SB       0.087700
     11 H4           1.8910     0.8850     0.5110 h1         1 9SB       0.087700
@<TRIPOS>BOND
     1     7     4 1
     2     4     2 1
     3     4     5 1
     4     4     6 1
     5     2     1 1
     6     1     3 1
     7     1     8 1
     8     1     9 1
     9     2    10 1
    10     2    11 1
@<TRIPOS>SUBSTRUCTURE
     1 9SB         1 TEMP              0 ****  ****    0 ROOT
