@<TRIPOS>MOLECULE
molecule
   57    60     1     0     0
SMALL
bcc


@<TRIPOS>ATOM
      1 N1           0.0000     0.0000     0.0000 nh         1 9SC      -0.594000
      2 N3           2.7780    -6.7300    11.4860 ns         1 9SC      -0.465100
      3 C4           0.3530    -0.0900    -2.3860 ca         1 9SC      -0.175000
      4 C5          -0.1450    -0.0180    -3.6730 ca         1 9SC      -0.096000
      5 C6          -1.4900     0.2220    -3.8840 ca         1 9SC      -0.138000
      6 C7           1.4700     0.0000     0.0000 c3         1 9SC       0.160800
      7 C8           1.9760     0.0000     1.4440 c3         1 9SC       0.161300
      8 C10         -0.5240    -1.1800     0.7010 c3         1 9SC       0.160800
      9 C13          2.1660    -2.6920     5.5500 c3         1 9SC      -0.084400
     10 C15          2.0820    -5.2700     8.1810 ca         1 9SC       0.174100
     11 C17          1.1290    -7.4720     8.2860 ca         1 9SC      -0.056000
     12 C20          2.5500    -5.4090     9.4780 ca         1 9SC      -0.204000
     13 C21          1.3260    -8.8840    10.3470 c3         1 9SC      -0.026100
     14 C22          2.5150    -9.1840    11.2600 c3         1 9SC      -0.153400
     15 C1          -2.3430     0.3900    -2.8080 ca         1 9SC       0.050400
     16 C12          1.6190    -2.6120     4.1250 c3         1 9SC      -0.081400
     17 C14          1.8060    -4.0480     6.1610 c3         1 9SC       0.139400
     18 C16          1.3730    -6.3040     7.5860 ca         1 9SC      -0.247000
     19 C18          1.5970    -7.6140     9.5770 ca         1 9SC      -0.167300
     20 C19          2.3080    -6.5830    10.1770 ca         1 9SC       0.107600
     21 C2          -1.8520     0.3190    -1.5160 ca         1 9SC       0.012400
     22 C23          2.8870    -7.9520    12.0400 c          1 9SC       0.704500
     23 C3          -0.5010     0.0720    -1.3030 ca         1 9SC       0.119600
     24 C9          -0.0160    -1.1810     2.1440 c3         1 9SC       0.161300
     25 N2           1.4530    -1.1810     2.1440 n3         1 9SC      -0.735600
     26 O1           2.3180    -4.1220     7.4920 os         1 9SC      -0.328900
     27 O2A          3.2870    -8.0610    13.1790 o          1 9SC      -0.628500
     28 Cl2         -2.9220     0.5310    -0.1660 cl         1 9SC      -0.078400
     29 H2           1.4070    -0.2780    -2.2220 ha         1 9SC       0.147000
     30 H3           0.5200    -0.1470    -4.5180 ha         1 9SC       0.140000
     31 H4          -1.8770     0.2780    -4.8940 ha         1 9SC       0.149000
     32 H5           1.8300    -0.8860    -0.5080 h1         1 9SC       0.053450
     33 H6           1.8300     0.8860    -0.5080 h1         1 9SC       0.053450
     34 H7           1.6340     0.8970     1.9460 h1         1 9SC       0.045950
     35 H8           3.0590    -0.0310     1.4460 h1         1 9SC       0.045950
     36 H9          -0.1830    -2.0780     0.1990 h1         1 9SC       0.053450
     37 H10         -1.6070    -1.1480     0.7000 h1         1 9SC       0.053450
     38 H11          1.7120    -1.9170     6.1550 hc         1 9SC       0.056700
     39 H12          3.2400    -2.5530     5.5330 hc         1 9SC       0.056700
     40 H13          0.5750    -8.2770     7.8190 ha         1 9SC       0.135000
     41 H14          3.1050    -4.6040     9.9440 ha         1 9SC       0.149000
     42 H15          0.4330    -8.7580    10.9470 hc         1 9SC       0.057200
     43 H16          1.1890    -9.7040     9.6520 hc         1 9SC       0.057200
     44 H17          2.2470    -9.9760    11.9490 hc         1 9SC       0.078200
     45 H18          3.3600    -9.4950    10.6570 hc         1 9SC       0.078200
     46 H21          0.5410    -2.7240     4.1450 hc         1 9SC       0.050700
     47 H22          2.0530    -3.4050     3.5270 hc         1 9SC       0.050700
     48 H23          0.7280    -4.1590     6.1820 h1         1 9SC       0.037200
     49 H24          2.2390    -4.8400     5.5630 h1         1 9SC       0.037200
     50 H25          1.0070    -6.1950     6.5720 ha         1 9SC       0.138000
     51 H26         -0.3760    -0.2940     2.6530 h1         1 9SC       0.045950
     52 H27         -0.3770    -2.0670     2.6530 h1         1 9SC       0.045950
     53 C11          1.9790    -1.2570     3.5140 c3         1 9SC       0.165800
     54 Cl1         -4.0320     0.6900    -3.0770 cl         1 9SC      -0.086400
     55 H1           3.0360    -5.9200    12.0150 hn         1 9SC       0.338500
     56 H19          1.5460    -0.4640     4.1120 h1         1 9SC       0.037700
     57 H20          3.0570    -1.1450     3.4930 h1         1 9SC       0.037700
@<TRIPOS>BOND
     1    18    11 ar
     2    18    10 ar
     3    11    19 ar
     4    26    10 1
     5    26    17 1
     6    10    12 ar
     7     9    16 1
     8     9    17 1
     9     6     7 1
    10     6     1 1
    11     7    25 1
    12    16    53 1
    13    19    13 1
    14    19    20 ar
    15    13    14 1
    16    53    25 1
    17    12    20 ar
    18    25    24 1
    19    20     2 1
    20     1    23 1
    21     1     8 1
    22    23     3 ar
    23    23    21 ar
    24    28    21 1
    25     3     4 ar
    26    14    22 1
    27    24     8 1
    28    21    15 ar
    29     2    22 1
    30     4     5 ar
    31    15     5 ar
    32    15    54 1
    33    22    27 2
    34     2    55 1
    35     3    29 1
    36     4    30 1
    37     5    31 1
    38     6    32 1
    39     6    33 1
    40     7    34 1
    41     7    35 1
    42     8    36 1
    43     8    37 1
    44     9    38 1
    45     9    39 1
    46    11    40 1
    47    12    41 1
    48    13    42 1
    49    13    43 1
    50    14    44 1
    51    14    45 1
    52    53    56 1
    53    53    57 1
    54    16    46 1
    55    16    47 1
    56    17    48 1
    57    17    49 1
    58    18    50 1
    59    24    51 1
    60    24    52 1
@<TRIPOS>SUBSTRUCTURE
     1 9SC         1 TEMP              0 ****  ****    0 ROOT
