@<TRIPOS>MOLECULE
molecule
   19    19     1     0     0
SMALL
bcc


@<TRIPOS>ATOM
      1 C2           0.0000     0.0000     0.0000 c3         1 9SE       0.304300
      2 C5           1.4630    -1.1650     2.1860 c3         1 9SE       0.151700
      3 O            0.2330    -1.2020    -2.0130 o          1 9SE      -0.838300
      4 C2A         -0.5330    -0.7220    -1.2110 c          1 9SE       0.914600
      5 OXT         -1.8570    -0.8330    -1.3970 o          1 9SE      -0.838300
      6 N3           1.4860     0.0000     0.0000 n7         1 9SE      -0.776200
      7 C2B         -0.5450     1.4280     0.0580 c3         1 9SE      -0.101100
      8 SE1         -0.4450    -0.9900     1.6600 ss         1 9SE      -0.622200
      9 C4           2.0750     0.0000     1.3480 c3         1 9SE       0.059500
     10 C4A          3.5660    -0.1850     1.2440 c          1 9SE       0.898600
     11 O41          4.3180    -0.2180     2.3550 o          1 9SE      -0.853300
     12 O42          4.0860    -0.3060     0.1600 o          1 9SE      -0.853300
     13 H1           1.8680    -2.1220     1.8800 h1         1 9SE       0.058700
     14 H2           1.5940    -0.9930     3.2480 h1         1 9SE       0.058700
     15 H4           1.8200     0.7940    -0.5100 hn         1 9SE       0.359800
     16 H6          -0.1180     1.9430     0.9110 hc         1 9SE       0.025700
     17 H7          -0.2780     1.9540    -0.8510 hc         1 9SE       0.025700
     18 H8          -1.6230     1.4000     0.1560 hc         1 9SE       0.025700
     19 H9           1.8570     0.9440     1.8340 h1         1 9SE       0.001700
@<TRIPOS>BOND
     1     3     4 1
     2     5     4 1
     3     4     1 1
     4     6     1 1
     5     6     9 1
     6     7     1 1
     7     1     8 1
     8    12    10 1
     9    10     9 1
    10    10    11 1
    11     9     2 1
    12     8     2 1
    13     2    13 1
    14     2    14 1
    15     6    15 1
    16     7    16 1
    17     7    17 1
    18     7    18 1
    19     9    19 1
@<TRIPOS>SUBSTRUCTURE
     1 9SE         1 TEMP              0 ****  ****    0 ROOT
