@<TRIPOS>MOLECULE
molecule
   37    37     1     0     0
SMALL
bcc


@<TRIPOS>ATOM
      1 OAB          0.0000     0.0000     0.0000 o          1 9SG      -0.615100
      2 CAN          1.2130     0.0000     0.0000 c          1 9SG       0.650100
      3 CAA          1.9670     0.0000     1.3040 c3         1 9SG      -0.175100
      4 NAL          1.8860    -0.0050    -1.1680 ns         1 9SG      -0.576900
      5 CAT          1.1530    -0.0110    -2.4360 c3         1 9SG       0.072700
      6 CAR          0.7960    -1.4520    -2.8140 c3         1 9SG      -0.119400
      7 CAS          0.0980    -1.4520    -4.1790 c3         1 9SG       0.135600
      8 FAI         -1.1010    -0.7360    -4.0910 f          1 9SG      -0.258300
      9 CAU          2.0290     0.5940    -3.5370 c3         1 9SG       0.156100
     10 OAM          1.3340     0.5350    -4.7840 os         1 9SG      -0.414600
     11 CAV          1.0150    -0.7910    -5.2100 c3         1 9SG       0.255100
     12 FAJ          0.3630    -0.7390    -6.4480 f          1 9SG      -0.220300
     13 CAO          2.2830    -1.5940    -5.3440 c          1 9SG       0.856600
     14 OAE          3.3510    -1.0330    -5.3940 o          1 9SG      -0.812800
     15 OAC          2.2250    -2.9340    -5.4100 o          1 9SG      -0.812800
     16 CAQ          2.3420     2.0530    -3.1960 c3         1 9SG       0.164100
     17 OAG          1.1200     2.7650    -2.9840 oh         1 9SG      -0.585800
     18 CAP          3.1110     2.6930    -4.3520 c3         1 9SG       0.138100
     19 OAF          4.3320     1.9810    -4.5650 oh         1 9SG      -0.589800
     20 CAK          3.4230     4.1520    -4.0120 c3         1 9SG       0.096400
     21 OAD          4.0370     4.7830    -5.1370 oh         1 9SG      -0.611800
     22 H1           2.5070     0.9340     1.4090 hc         1 9SG       0.052700
     23 H2           2.6690    -0.8260     1.3150 hc         1 9SG       0.052700
     24 H3           1.2690    -0.1080     2.1250 hc         1 9SG       0.052700
     25 H4           2.8860    -0.0350    -1.1680 hn         1 9SG       0.311500
     26 H5           0.2450     0.5710    -2.3380 h1         1 9SG       0.103700
     27 H6           1.7000    -2.0460    -2.8700 hc         1 9SG       0.069200
     28 H7           0.1290    -1.8660    -2.0670 hc         1 9SG       0.069200
     29 H8          -0.1050    -2.4730    -4.4790 h1         1 9SG       0.092700
     30 H9           2.9510     0.0310    -3.6120 h1         1 9SG       0.109700
     31 H11          2.9440     2.0920    -2.2960 h1         1 9SG       0.031700
     32 H12          1.2090     3.3250    -2.2310 ho         1 9SG       0.385000
     33 H13          2.5090     2.6530    -5.2520 h1         1 9SG       0.086700
     34 H14          4.7020     2.2330    -5.3940 ho         1 9SG       0.418000
     35 H15          4.0970     4.1880    -3.1650 h1         1 9SG       0.020200
     36 H16          2.5040     4.6690    -3.7650 h1         1 9SG       0.020200
     37 H17          4.1740     5.6970    -4.9490 ho         1 9SG       0.392000
@<TRIPOS>BOND
     1    14    13 1
     2     3     2 1
     3    15    13 1
     4    13    11 1
     5     4     2 1
     6     4     5 1
     7     6     5 1
     8     6     7 1
     9     2     1 2
    10    19    18 1
    11     5     9 1
    12     9    16 1
    13     9    10 1
    14     7    11 1
    15     7     8 1
    16    11    10 1
    17    11    12 1
    18    16    18 1
    19    16    17 1
    20    18    20 1
    21    20    21 1
    22     3    22 1
    23     3    23 1
    24     3    24 1
    25     4    25 1
    26     5    26 1
    27     6    27 1
    28     6    28 1
    29     7    29 1
    30     9    30 1
    31    16    31 1
    32    17    32 1
    33    18    33 1
    34    19    34 1
    35    20    35 1
    36    20    36 1
    37    21    37 1
@<TRIPOS>SUBSTRUCTURE
     1 9SG         1 TEMP              0 ****  ****    0 ROOT
