@<TRIPOS>MOLECULE
9SG
   37    37     1     0     0
SMALL
bcc


@<TRIPOS>ATOM
      1 OAB          0.0000     0.0000     0.0000 o          1 9SG      -0.656100
      2 CAN          1.2130     0.0000     0.0000 c          1 9SG       0.560100
      3 CAA          1.9670     0.0000     1.3040 c3         1 9SG      -0.071100
      4 NAL          1.8860    -0.0050    -1.1680 ns         1 9SG      -0.177900
      5 CAT          1.1530    -0.0110    -2.4360 c3         1 9SG      -0.034300
      6 CAR          0.7960    -1.4520    -2.8140 c3         1 9SG      -0.070400
      7 CAS          0.0980    -1.4520    -4.1790 c3         1 9SG       0.146600
      8 FAI         -1.1010    -0.7360    -4.0910 f          1 9SG      -0.243300
      9 CAU          2.0290     0.5940    -3.5370 c3         1 9SG       0.160100
     10 OAM          1.3340     0.5350    -4.7840 os         1 9SG      -0.387600
     11 CAV          1.0150    -0.7910    -5.2100 c3         1 9SG       0.248100
     12 FAJ          0.3630    -0.7390    -6.4480 f          1 9SG      -0.217300
     13 CAO          2.2830    -1.5940    -5.3440 c          1 9SG       0.936600
     14 OAE          3.3510    -1.0330    -5.3940 o          1 9SG      -0.859300
     15 OAC          2.2250    -2.9340    -5.4100 o          1 9SG      -0.859300
     16 CAQ          2.3420     2.0530    -3.1960 c3         1 9SG       0.188100
     17 OAG          1.1200     2.7650    -2.9840 oh         1 9SG      -0.566800
     18 CAP          3.1110     2.6930    -4.3520 c3         1 9SG       0.160100
     19 OAF          4.3320     1.9810    -4.5650 oh         1 9SG      -0.568800
     20 CAK          3.4230     4.1520    -4.0120 c3         1 9SG       0.176400
     21 OAD          4.0370     4.7830    -5.1370 oh         1 9SG      -0.591800
     22 H1           2.5070     0.9340     1.4090 hc         1 9SG       0.015700
     23 H2           2.6690    -0.8260     1.3150 hc         1 9SG       0.015700
     24 H3           1.2690    -0.1080     2.1250 hc         1 9SG       0.015700
     25 H4           2.8860    -0.0350    -1.1680 hn         1 9SG       0.172500
     26 H5           0.2450     0.5710    -2.3380 h1         1 9SG       0.083700
     27 H6           1.7000    -2.0460    -2.8700 hc         1 9SG       0.044700
     28 H7           0.1290    -1.8660    -2.0670 hc         1 9SG       0.044700
     29 H8          -0.1050    -2.4730    -4.4790 h1         1 9SG       0.066700
     30 H9           2.9510     0.0310    -3.6120 h1         1 9SG       0.089700
     31 H11          2.9440     2.0920    -2.2960 h1         1 9SG      -0.004300
     32 H12          1.2090     3.3250    -2.2310 ho         1 9SG       0.371000
     33 H13          2.5090     2.6530    -5.2520 h1         1 9SG       0.050700
     34 H14          4.7020     2.2330    -5.3940 ho         1 9SG       0.403000
     35 H15          4.0970     4.1880    -3.1650 h1         1 9SG      -0.012300
     36 H16          2.5040     4.6690    -3.7650 h1         1 9SG      -0.012300
     37 H17          4.1740     5.6970    -4.9490 ho         1 9SG       0.380000
@<TRIPOS>BOND
     1     1     2 2   
     2     2     3 1   
     3     2     4 1   
     4     3    22 1   
     5     3    23 1   
     6     3    24 1   
     7     4     5 1   
     8     4    25 1   
     9     5     6 1   
    10     5     9 1   
    11     5    26 1   
    12     6     7 1   
    13     6    27 1   
    14     6    28 1   
    15     7     8 1   
    16     7    11 1   
    17     7    29 1   
    18     9    10 1   
    19     9    16 1   
    20     9    30 1   
    21    10    11 1   
    22    11    12 1   
    23    11    13 1   
    24    13    14 1   
    25    13    15 1   
    26    16    17 1   
    27    16    18 1   
    28    16    31 1   
    29    17    32 1   
    30    18    19 1   
    31    18    20 1   
    32    18    33 1   
    33    19    34 1   
    34    20    21 1   
    35    20    35 1   
    36    20    36 1   
    37    21    37 1   
@<TRIPOS>SUBSTRUCTURE
     1 9SG         1 TEMP              0 ****  ****    0 ROOT
