@<TRIPOS>MOLECULE
molecule
   37    37     1     0     0
SMALL
bcc


@<TRIPOS>ATOM
      1 O10          0.0000     0.0000     0.0000 o          1 9SJ      -0.582100
      2 C10          1.2120     0.0000     0.0000 c          1 9SJ       0.650100
      3 C11          1.9670     0.0000     1.3050 c3         1 9SJ      -0.174100
      4 N5           1.8860    -0.0060    -1.1670 ns         1 9SJ      -0.583900
      5 C5           1.1530    -0.0110    -2.4360 c3         1 9SJ       0.089700
      6 C4           0.7910    -1.4520    -2.8110 c3         1 9SJ       0.094100
      7 O4          -0.0890    -1.9960    -1.8250 oh         1 9SJ      -0.578800
      8 C3           0.0940    -1.4520    -4.1760 c3         1 9SJ       0.141600
      9 F1          -1.1020    -0.7330    -4.0900 f          1 9SJ      -0.223300
     10 C6           2.0310     0.5900    -3.5370 c3         1 9SJ       0.129100
     11 O6           1.3350     0.5300    -4.7850 os         1 9SJ      -0.371600
     12 C2           1.0130    -0.7970    -5.2090 c3         1 9SJ       0.008100
     13 C1           0.3110    -0.7410    -6.5410 c          1 9SJ       0.904600
     14 O1A          0.0290     0.3280    -7.0310 o          1 9SJ      -0.819800
     15 O1B         -0.0000    -1.8770    -7.1840 o          1 9SJ      -0.819800
     16 C7           2.3470     2.0490    -3.1990 c3         1 9SJ      -0.061400
     17 C8           3.3240     2.6110    -4.2320 c3         1 9SJ       0.149100
     18 O8           4.5710     1.9220    -4.1330 oh         1 9SJ      -0.620800
     19 C9           3.5430     4.1030    -3.9660 c3         1 9SJ       0.105400
     20 O9           4.3620     4.6550    -4.9990 oh         1 9SJ      -0.615800
     21 H1           2.4590     0.9560     1.4370 hc         1 9SJ       0.051033
     22 H2           2.7080    -0.7900     1.2930 hc         1 9SJ       0.051033
     23 H3           1.2750    -0.1660     2.1220 hc         1 9SJ       0.051033
     24 H4           2.8860    -0.0470    -1.1670 hn         1 9SJ       0.304500
     25 H5           0.2460     0.5740    -2.3390 h1         1 9SJ       0.112700
     26 H6           1.6940    -2.0480    -2.8660 h1         1 9SJ       0.026700
     27 H7          -0.0530    -2.9380    -1.8560 ho         1 9SJ       0.387000
     28 H8          -0.1130    -2.4730    -4.4740 h1         1 9SJ       0.071700
     29 H9           2.9520     0.0240    -3.6110 h1         1 9SJ       0.036700
     30 H10          1.9240    -1.3760    -5.2990 h1         1 9SJ       0.033700
     31 H12          1.4320     2.6290    -3.2130 hc         1 9SJ       0.055700
     32 H13          2.7930     2.1020    -2.2130 hc         1 9SJ       0.055700
     33 H14          2.9150     2.4780    -5.2260 h1         1 9SJ       0.085700
     34 H15          5.0670     2.0540    -4.9240 ho         1 9SJ       0.412000
     35 H16          2.5870     4.6110    -3.9530 h1         1 9SJ       0.024200
     36 H17          4.0340     4.2310    -3.0090 h1         1 9SJ       0.024200
     37 H18          4.4660     5.5810    -4.8570 ho         1 9SJ       0.395000
@<TRIPOS>BOND
     1     3     2 1
     2    18    17 1
     3     4     2 1
     4     4     5 1
     5     2     1 2
     6    20    19 1
     7     6     5 1
     8     6     7 1
     9     6     8 1
    10    10     5 1
    11    10    16 1
    12    10    11 1
    13    17    16 1
    14    17    19 1
    15    12     8 1
    16    12    11 1
    17    12    13 1
    18     8     9 1
    19    13    14 1
    20    13    15 1
    21     3    21 1
    22     3    22 1
    23     3    23 1
    24     4    24 1
    25     5    25 1
    26     6    26 1
    27     7    27 1
    28     8    28 1
    29    10    29 1
    30    12    30 1
    31    16    31 1
    32    16    32 1
    33    17    33 1
    34    18    34 1
    35    19    35 1
    36    19    36 1
    37    20    37 1
@<TRIPOS>SUBSTRUCTURE
     1 9SJ         1 TEMP              0 ****  ****    0 ROOT
