@<TRIPOS>MOLECULE
9SJ
   37    37     1     0     0
SMALL
bcc


@<TRIPOS>ATOM
      1 O10          0.0000     0.0000     0.0000 o          1 9SJ      -0.621100
      2 C10          1.2120     0.0000     0.0000 c          1 9SJ       0.561100
      3 C11          1.9670     0.0000     1.3050 c3         1 9SJ      -0.070100
      4 N5           1.8860    -0.0060    -1.1670 ns         1 9SJ      -0.191900
      5 C5           1.1530    -0.0110    -2.4360 c3         1 9SJ      -0.025300
      6 C4           0.7910    -1.4520    -2.8110 c3         1 9SJ       0.138100
      7 O4          -0.0890    -1.9960    -1.8250 oh         1 9SJ      -0.556800
      8 C3           0.0940    -1.4520    -4.1760 c3         1 9SJ       0.151600
      9 F1          -1.1020    -0.7330    -4.0900 f          1 9SJ      -0.217300
     10 C6           2.0310     0.5900    -3.5370 c3         1 9SJ       0.157100
     11 O6           1.3350     0.5300    -4.7850 os         1 9SJ      -0.347600
     12 C2           1.0130    -0.7970    -5.2090 c3         1 9SJ       0.043100
     13 C1           0.3110    -0.7410    -6.5410 c          1 9SJ       0.981600
     14 O1A          0.0290     0.3280    -7.0310 o          1 9SJ      -0.873800
     15 O1B         -0.0000    -1.8770    -7.1840 o          1 9SJ      -0.873800
     16 C7           2.3470     2.0490    -3.1990 c3         1 9SJ      -0.029400
     17 C8           3.3240     2.6110    -4.2320 c3         1 9SJ       0.179100
     18 O8           4.5710     1.9220    -4.1330 oh         1 9SJ      -0.602800
     19 C9           3.5430     4.1030    -3.9660 c3         1 9SJ       0.185400
     20 O9           4.3620     4.6550    -4.9990 oh         1 9SJ      -0.596800
     21 H1           2.4590     0.9560     1.4370 hc         1 9SJ       0.014367
     22 H2           2.7080    -0.7900     1.2930 hc         1 9SJ       0.014367
     23 H3           1.2750    -0.1660     2.1220 hc         1 9SJ       0.014367
     24 H4           2.8860    -0.0470    -1.1670 hn         1 9SJ       0.167500
     25 H5           0.2460     0.5740    -2.3390 h1         1 9SJ       0.090700
     26 H6           1.6940    -2.0480    -2.8660 h1         1 9SJ      -0.000300
     27 H7          -0.0530    -2.9380    -1.8560 ho         1 9SJ       0.374000
     28 H8          -0.1130    -2.4730    -4.4740 h1         1 9SJ       0.045700
     29 H9           2.9520     0.0240    -3.6110 h1         1 9SJ       0.012700
     30 H10          1.9240    -1.3760    -5.2990 h1         1 9SJ       0.009700
     31 H12          1.4320     2.6290    -3.2130 hc         1 9SJ       0.025200
     32 H13          2.7930     2.1020    -2.2130 hc         1 9SJ       0.025200
     33 H14          2.9150     2.4780    -5.2260 h1         1 9SJ       0.051700
     34 H15          5.0670     2.0540    -4.9240 ho         1 9SJ       0.400000
     35 H16          2.5870     4.6110    -3.9530 h1         1 9SJ      -0.009800
     36 H17          4.0340     4.2310    -3.0090 h1         1 9SJ      -0.009800
     37 H18          4.4660     5.5810    -4.8570 ho         1 9SJ       0.383000
@<TRIPOS>BOND
     1     1     2 2   
     2     2     3 1   
     3     2     4 1   
     4     3    21 1   
     5     3    22 1   
     6     3    23 1   
     7     4     5 1   
     8     4    24 1   
     9     5     6 1   
    10     5    10 1   
    11     5    25 1   
    12     6     7 1   
    13     6     8 1   
    14     6    26 1   
    15     7    27 1   
    16     8     9 1   
    17     8    12 1   
    18     8    28 1   
    19    10    11 1   
    20    10    16 1   
    21    10    29 1   
    22    11    12 1   
    23    12    13 1   
    24    12    30 1   
    25    13    14 1   
    26    13    15 1   
    27    16    17 1   
    28    16    31 1   
    29    16    32 1   
    30    17    18 1   
    31    17    19 1   
    32    17    33 1   
    33    18    34 1   
    34    19    20 1   
    35    19    35 1   
    36    19    36 1   
    37    20    37 1   
@<TRIPOS>SUBSTRUCTURE
     1 9SJ         1 TEMP              0 ****  ****    0 ROOT
