@<TRIPOS>MOLECULE
9SL
   41    43     1     0     0
SMALL
bcc


@<TRIPOS>ATOM
      1 C10          0.0000     0.0000     0.0000 c3         1 9SL       0.311400
      2 C20          1.9520     0.0000     1.3820 c3         1 9SL       0.189800
      3 O01          2.5200    -4.6010     0.9750 o          1 9SL      -0.418000
      4 C02          2.8270    -4.5670    -0.2000 c          1 9SL       0.439100
      5 O03          2.2320    -3.6840    -1.0260 os         1 9SL      -0.396900
      6 C04          1.2350    -2.8040    -0.4420 c3         1 9SL       0.228400
      7 C05          0.6750    -1.8790    -1.5250 c3         1 9SL       0.119500
      8 N06          1.7480    -0.9990    -2.0000 n2         1 9SL      -0.464900
      9 C07          2.1880    -0.0590    -1.1790 c2         1 9SL       0.283100
     10 N08          3.2460     0.7700    -1.4690 nz         1 9SL       0.205400
     11 N09          1.4710     0.0000     0.0000 nh         1 9SL      -0.508600
     12 N11         -0.5180     1.2450    -0.5680 n2         1 9SL      -0.510900
     13 C12         -1.1470     0.9920    -1.6730 c2         1 9SL       0.285100
     14 N13         -1.1790    -0.3360    -2.0090 nu         1 9SL      -0.454200
     15 C14         -0.4990    -1.0960    -0.9470 c3         1 9SL       0.096500
     16 N15         -1.7330     1.9710    -2.4400 nz         1 9SL       0.207400
     17 C16         -0.4550    -0.1990     1.4460 c3         1 9SL       0.396600
     18 O17         -1.6630     0.5200     1.7030 oh         1 9SL      -0.601300
     19 O18         -0.6120    -1.5870     1.7440 oh         1 9SL      -0.601300
     20 C19          0.7320     0.4100     2.2480 c3         1 9SL      -0.067400
     21 N21          3.7610    -5.4120    -0.6790 nz         1 9SL       0.262600
     22 H1           2.7520     0.7210     1.4980 h1         1 9SL       0.035700
     23 H2           2.2900    -0.9910     1.6590 h1         1 9SL       0.035700
     24 H3           0.4320    -3.3970    -0.0230 h1         1 9SL       0.057700
     25 H4           1.6920    -2.2100     0.3400 h1         1 9SL       0.057700
     26 H5           0.3210    -2.4770    -2.3560 h1         1 9SL       0.090700
     27 H6           3.2660     0.9540    -2.4520 hn         1 9SL       0.233467
     28 H7           4.1010     0.3290    -1.1940 hn         1 9SL       0.233467
     29 H9          -1.1940    -1.7550    -0.4410 h1         1 9SL       0.120700
     30 H10         -1.5530     2.8670    -2.0320 hn         1 9SL       0.238467
     31 H11         -2.7210     1.8150    -2.4820 hn         1 9SL       0.238467
     32 H12         -1.9430     0.3570     2.5890 ho         1 9SL       0.448000
     33 H13         -1.1780    -1.6860     2.4910 ho         1 9SL       0.448000
     34 H14          0.6460     1.4890     2.3040 hc         1 9SL       0.076200
     35 H15          0.7960    -0.0320     3.2350 hc         1 9SL       0.076200
     36 H16          4.6480    -4.9490    -0.7050 hn         1 9SL       0.260467
     37 H17          3.8210    -6.2140    -0.0840 hn         1 9SL       0.260467
     38 H8          -1.6150    -0.7250    -2.8220 hn         1 9SL       0.353800
     39 H083         3.1270     1.6420    -0.9910 hn         1 9SL       0.233467
     40 H153        -1.3330     1.9600    -3.3570 hn         1 9SL       0.238467
     41 H213         3.5090    -5.6980    -1.6040 hn         1 9SL       0.260467
@<TRIPOS>BOND
     1     1    11 1   
     2     1    12 1   
     3     1    15 1   
     4     1    17 1   
     5     2    11 1   
     6     2    20 1   
     7     2    22 1   
     8     2    23 1   
     9     3     4 2   
    10     4     5 1   
    11     4    21 1   
    12     5     6 1   
    13     6     7 1   
    14     6    24 1   
    15     6    25 1   
    16     7     8 1   
    17     7    15 1   
    18     7    26 1   
    19     8     9 2   
    20     9    10 1   
    21     9    11 1   
    22    10    27 1   
    23    10    28 1   
    24    10    39 1   
    25    12    13 2   
    26    13    14 1   
    27    13    16 1   
    28    14    15 1   
    29    14    38 1   
    30    15    29 1   
    31    16    30 1   
    32    16    31 1   
    33    16    40 1   
    34    17    18 1   
    35    17    19 1   
    36    17    20 1   
    37    18    32 1   
    38    19    33 1   
    39    20    34 1   
    40    20    35 1   
    41    21    36 1   
    42    21    37 1   
    43    21    41 1   
@<TRIPOS>SUBSTRUCTURE
     1 9SL         1 TEMP              0 ****  ****    0 ROOT
