@<TRIPOS>MOLECULE
molecule
   37    37     1     0     0
SMALL
bcc


@<TRIPOS>ATOM
      1 OAC          0.0000     0.0000     0.0000 o          1 9SM      -0.811300
      2 CAO          1.3430     0.0000     0.0000 c          1 9SM       0.854600
      3 OAE          1.9460    -0.0010    -1.0470 o          1 9SM      -0.811300
      4 CAV          2.0970     0.0000     1.3050 c3         1 9SM       0.257100
      5 FAJ          2.0610     1.2830     1.8640 f          1 9SM      -0.218300
      6 CAS          1.4470    -0.9960     2.2700 c3         1 9SM       0.108600
      7 FAI          2.1140    -0.9590     3.4990 f          1 9SM      -0.248300
      8 CAR          1.5440    -2.4050     1.6780 c3         1 9SM       0.107100
      9 OAG          1.0060    -3.3510     2.6040 oh         1 9SM      -0.586800
     10 OAM          3.4540    -0.3810     1.0710 os         1 9SM      -0.428600
     11 CAU          3.6040    -1.6700     0.4750 c3         1 9SM       0.149100
     12 CAQ          5.0890    -1.9580     0.2470 c3         1 9SM      -0.060400
     13 CAP          5.6480    -0.9690    -0.7780 c3         1 9SM       0.156100
     14 CAK          7.1580    -1.1740    -0.9140 c3         1 9SM       0.098400
     15 OAD          7.6990    -0.1770    -1.7840 oh         1 9SM      -0.614800
     16 OAF          5.0220    -1.1910    -2.0440 oh         1 9SM      -0.598800
     17 CAT          3.0160    -2.7330     1.4060 c3         1 9SM       0.083700
     18 NAL          3.1140    -4.0500     0.7710 ns         1 9SM      -0.577900
     19 CAN          3.1410    -5.1640     1.5300 c          1 9SM       0.653100
     20 OAB          3.0820    -5.0760     2.7370 o          1 9SM      -0.592100
     21 CAA          3.2430    -6.5170     0.8750 c3         1 9SM      -0.174100
     22 H2           0.4050    -0.7350     2.4090 h1         1 9SM       0.091700
     23 H3           0.9890    -2.4450     0.7480 h1         1 9SM       0.075700
     24 H4           0.0650    -3.3490     2.5440 ho         1 9SM       0.393000
     25 H5           3.0780    -1.6910    -0.4720 h1         1 9SM       0.106700
     26 H6           5.6260    -1.8500     1.1820 hc         1 9SM       0.049700
     27 H7           5.2090    -2.9690    -0.1240 hc         1 9SM       0.049700
     28 H8           5.4500     0.0440    -0.4490 h1         1 9SM       0.075700
     29 H9           7.6230    -1.0930     0.0610 h1         1 9SM       0.020700
     30 H10          7.3530    -2.1570    -1.3270 h1         1 9SM       0.020700
     31 H11          8.6390    -0.2470    -1.7960 ho         1 9SM       0.392000
     32 H12          5.2260    -0.4770    -2.6260 ho         1 9SM       0.414000
     33 H13          3.5630    -2.7360     2.3410 h1         1 9SM       0.096700
     34 H14          3.1310    -4.1240    -0.2270 hn         1 9SM       0.313500
     35 H15          2.4790    -6.6080     0.1120 hc         1 9SM       0.051033
     36 H16          3.1020    -7.2900     1.6210 hc         1 9SM       0.051033
     37 H17          4.2210    -6.6270     0.4220 hc         1 9SM       0.051033
@<TRIPOS>BOND
     1     3     2 1
     2    21    19 1
     3     1     2 1
     4     2     4 1
     5    18    19 1
     6    18    17 1
     7     8     9 1
     8     8    17 1
     9     8     6 1
    10    19    20 2
    11    16    13 1
    12    17    11 1
    13     6     4 1
    14     6     7 1
    15    11    10 1
    16    11    12 1
    17     4    10 1
    18     4     5 1
    19    13    12 1
    20    13    14 1
    21    14    15 1
    22     6    22 1
    23     8    23 1
    24     9    24 1
    25    11    25 1
    26    12    26 1
    27    12    27 1
    28    13    28 1
    29    14    29 1
    30    14    30 1
    31    15    31 1
    32    16    32 1
    33    17    33 1
    34    18    34 1
    35    21    35 1
    36    21    36 1
    37    21    37 1
@<TRIPOS>SUBSTRUCTURE
     1 9SM         1 TEMP              0 ****  ****    0 ROOT
