@<TRIPOS>MOLECULE
9SN
   50    53     1     0     0
SMALL
bcc


@<TRIPOS>ATOM
      1 C5           0.0000     0.0000     0.0000 cc         1 9SN       0.276700
      2 N1           4.1710    -0.0020     1.1040 nv         1 9SN      -0.521500
      3 C7          -1.8720     0.0020     1.6920 c3         1 9SN       0.142800
      4 C9          -4.0400     0.0560     0.8820 c3         1 9SN       0.139100
      5 C10         -4.7460     0.4040    -0.4300 c3         1 9SN       0.312400
      6 C3           1.7530     0.0000     1.2770 ca         1 9SN      -0.226200
      7 C2           3.0230    -0.0000     1.8770 ca         1 9SN       0.582200
      8 C16         -3.8870     1.3220     1.7460 c3         1 9SN       0.125100
      9 C18         -2.3600     1.4480     1.9670 c3         1 9SN       0.125100
     10 C20          0.6240     0.0010     2.1150 ca         1 9SN       0.255800
     11 C22          2.0080     0.0010     3.9490 ca         1 9SN       0.658900
     12 C24         -6.6330    -2.5080    -4.2290 c          1 9SN       0.776700
     13 C25         -6.8740    -3.8710    -4.7290 ca         1 9SN      -0.224600
     14 C27         -5.9610    -4.4740    -5.6020 ca         1 9SN       0.194900
     15 C28         -6.1950    -5.7530    -6.0670 ca         1 9SN      -0.227000
     16 C29         -7.3300    -6.4430    -5.6730 ca         1 9SN      -0.029000
     17 C30         -8.2390    -5.8610    -4.8110 ca         1 9SN      -0.233000
     18 C31         -8.0200    -4.5790    -4.3280 ca         1 9SN       0.107600
     19 F33         -4.8530    -3.8050    -5.9900 f          1 9SN      -0.120900
     20 N21          0.7970     0.0010     3.4330 nb         1 9SN      -0.644000
     21 N23          3.0980     0.0000     3.2040 nb         1 9SN      -0.742000
     22 N32         -8.9310    -3.9960    -3.4580 nv         1 9SN      -0.426200
     23 N4           1.3020     0.0000     0.0000 nd         1 9SN      -0.518100
     24 N6          -0.4660     0.0010     1.2810 na         1 9SN       0.219000
     25 O11         -4.9890    -0.7920    -1.1730 os         1 9SN      -0.502200
     26 O13         -4.7990    -0.0280    -3.6810 o          1 9SN      -0.637000
     27 O14         -5.9400    -2.3220    -3.0880 os         1 9SN      -0.454500
     28 O15         -7.0280    -0.1220    -2.5000 o          1 9SN      -0.637000
     29 O17         -4.5610     1.1600     2.9960 oh         1 9SN      -0.561800
     30 O19         -2.0690     1.8370     3.3110 oh         1 9SN      -0.546800
     31 O26         -7.0580    -1.5510    -4.8440 o          1 9SN      -0.550000
     32 O8          -2.7180    -0.4390     0.6100 os         1 9SN      -0.373600
     33 P12         -5.7170    -0.8000    -2.6080 p5         1 9SN       0.917800
     34 HC5         -0.6220    -0.0000    -0.8870 h5         1 9SN       0.058800
     35 HN1B         4.1770    -0.4670     0.2180 hn         1 9SN       0.271800
     36 HN1A         5.0050     0.4320     1.4460 hn         1 9SN       0.271800
     37 HC7         -2.0200    -0.6210     2.5670 h2         1 9SN       0.063700
     38 HC9         -4.6070    -0.6910     1.4240 h1         1 9SN       0.042700
     39 H10B        -5.6890     0.8930    -0.2150 h1         1 9SN      -0.009300
     40 H10A        -4.1200     1.0690    -1.0120 h1         1 9SN      -0.009300
     41 HC16        -4.2630     2.1890     1.2150 h1         1 9SN       0.018700
     42 HC18        -1.9260     2.1390     1.2550 h1         1 9SN       0.021700
     43 HC22         2.1360    -0.0100     5.0250 h5         1 9SN      -0.010900
     44 HC28        -5.4890    -6.2190    -6.7430 ha         1 9SN       0.111000
     45 HC29        -7.5060    -7.4450    -6.0450 ha         1 9SN       0.087000
     46 HC30        -9.1230    -6.4100    -4.5070 ha         1 9SN       0.101000
     47 H32B        -9.7530    -4.4980    -3.1850 hn         1 9SN       0.276300
     48 H32A        -8.7880    -3.0590    -3.1370 hn         1 9SN       0.276300
     49 HO17        -5.2510     1.8000     3.0660 ho         1 9SN       0.385000
     50 HO19        -1.9550     2.7730     3.3490 ho         1 9SN       0.382000
@<TRIPOS>BOND
     1     1    23 2   
     2     1    24 1   
     3     1    34 1   
     4     2     7 1   
     5     2    35 1   
     6     2    36 1   
     7     3     9 1   
     8     3    24 1   
     9     3    32 1   
    10     3    37 1   
    11     4     5 1   
    12     4     8 1   
    13     4    32 1   
    14     4    38 1   
    15     5    25 1   
    16     5    39 1   
    17     5    40 1   
    18     6     7 ar  
    19     6    10 ar  
    20     6    23 1   
    21     7    21 ar  
    22     8     9 1   
    23     8    29 1   
    24     8    41 1   
    25     9    30 1   
    26     9    42 1   
    27    10    20 ar  
    28    10    24 1   
    29    11    20 ar  
    30    11    21 ar  
    31    11    43 1   
    32    12    13 1   
    33    12    27 1   
    34    12    31 2   
    35    13    14 ar  
    36    13    18 ar  
    37    14    15 ar  
    38    14    19 1   
    39    15    16 ar  
    40    15    44 1   
    41    16    17 ar  
    42    16    45 1   
    43    17    18 ar  
    44    17    46 1   
    45    18    22 1   
    46    22    47 1   
    47    22    48 1   
    48    25    33 1   
    49    26    33 1   
    50    27    33 1   
    51    28    33 1   
    52    29    49 1   
    53    30    50 1   
@<TRIPOS>SUBSTRUCTURE
     1 9SN         1 TEMP              0 ****  ****    0 ROOT
