@<TRIPOS>MOLECULE
9SP
   37    37     1     0     0
SMALL
bcc


@<TRIPOS>ATOM
      1 OAC          0.0000     0.0000     0.0000 o          1 9SP      -0.862300
      2 CAO          1.3420     0.0000     0.0000 c          1 9SP       0.937600
      3 OAE          1.9460     0.0020    -1.0460 o          1 9SP      -0.862300
      4 CAV          2.0960     0.0000     1.3050 c3         1 9SP       0.251100
      5 FAJ          2.0590     1.2820     1.8650 f          1 9SP      -0.212300
      6 CAS          1.4470    -0.9980     2.2690 c3         1 9SP       0.116600
      7 FAI          2.1140    -0.9600     3.4980 f          1 9SP      -0.231300
      8 CAR          1.5450    -2.4060     1.6750 c3         1 9SP       0.146100
      9 OAF          1.0080    -3.3530     2.6010 oh         1 9SP      -0.565800
     10 OAM          3.4540    -0.3790     1.0720 os         1 9SP      -0.381600
     11 CAU          3.6050    -1.6680     0.4740 c3         1 9SP       0.161100
     12 CAQ          5.0900    -1.9530     0.2450 c3         1 9SP       0.196100
     13 CAP          5.7060    -0.8220    -0.5800 c3         1 9SP      -0.068400
     14 CAK          7.1590    -1.1680    -0.9140 c3         1 9SP       0.220400
     15 OAD          7.7340    -0.1100    -1.6860 oh         1 9SP      -0.585800
     16 OAG          5.7580    -2.0420     1.5060 oh         1 9SP      -0.567800
     17 CAT          3.0170    -2.7330     1.4030 c3         1 9SP      -0.034300
     18 NAL          3.1170    -4.0480     0.7660 ns         1 9SP      -0.183900
     19 CAN          3.1440    -5.1630     1.5240 c          1 9SP       0.560100
     20 OAB          3.0860    -5.0770     2.7320 o          1 9SP      -0.624100
     21 CAA          3.2470    -6.5170     0.8680 c3         1 9SP      -0.071100
     22 H2           0.4050    -0.7370     2.4090 h1         1 9SP       0.065700
     23 H3           0.9890    -2.4450     0.7460 h1         1 9SP       0.045700
     24 H4           0.0670    -3.3500     2.5430 ho         1 9SP       0.380000
     25 H5           3.0790    -1.6880    -0.4730 h1         1 9SP       0.073700
     26 H6           5.2000    -2.8900    -0.2880 h1         1 9SP      -0.013300
     27 H7           5.6760     0.0990    -0.0100 hc         1 9SP       0.055700
     28 H8           5.1440    -0.6970    -1.4980 hc         1 9SP       0.055700
     29 H9           7.7210    -1.2920     0.0030 h1         1 9SP      -0.025300
     30 H10          7.1890    -2.0880    -1.4850 h1         1 9SP      -0.025300
     31 H11          8.6120    -0.3450    -1.9360 ho         1 9SP       0.374000
     32 H12          6.4010    -2.7300     1.4740 ho         1 9SP       0.370000
     33 H13          3.5630    -2.7360     2.3390 h1         1 9SP       0.095700
     34 H14          3.1210    -4.1220    -0.2320 hn         1 9SP       0.165500
     35 H15          4.2110    -6.6100     0.3820 hc         1 9SP       0.014033
     36 H16          2.4600    -6.6220     0.1310 hc         1 9SP       0.014033
     37 H17          3.1450    -7.2900     1.6190 hc         1 9SP       0.014033
@<TRIPOS>BOND
     1     1     2 1   
     2     2     3 1   
     3     2     4 1   
     4     4     5 1   
     5     4     6 1   
     6     4    10 1   
     7     6     7 1   
     8     6     8 1   
     9     6    22 1   
    10     8     9 1   
    11     8    17 1   
    12     8    23 1   
    13     9    24 1   
    14    10    11 1   
    15    11    12 1   
    16    11    17 1   
    17    11    25 1   
    18    12    13 1   
    19    12    16 1   
    20    12    26 1   
    21    13    14 1   
    22    13    27 1   
    23    13    28 1   
    24    14    15 1   
    25    14    29 1   
    26    14    30 1   
    27    15    31 1   
    28    16    32 1   
    29    17    18 1   
    30    17    33 1   
    31    18    19 1   
    32    18    34 1   
    33    19    20 2   
    34    19    21 1   
    35    21    35 1   
    36    21    36 1   
    37    21    37 1   
@<TRIPOS>SUBSTRUCTURE
     1 9SP         1 TEMP              0 ****  ****    0 ROOT
