@<TRIPOS>MOLECULE
molecule
   40    43     1     0     0
SMALL
bcc


@<TRIPOS>ATOM
      1 N12          0.0000     0.0000     0.0000 nu         1 9SR      -0.901200
      2 C13          1.3770     0.0000     0.0000 c2         1 9SR       0.675100
      3 C15          1.4750     0.0210     2.4300 c3         1 9SR       0.373300
      4 C17          0.0240    -0.4770     2.3820 c3         1 9SR      -0.124700
      5 C21         -2.8340    -0.4150     4.9670 c3         1 9SR       0.119400
      6 C02         -2.8370     0.1230     2.5200 c3         1 9SR       0.158100
      7 C03         -2.1240    -0.6550     3.6330 c3         1 9SR       0.091800
      8 C05         -0.6730    -0.1670     3.7090 c3         1 9SR       0.155100
      9 C07         -1.3750     1.9930     2.9070 c3         1 9SR       0.516400
     10 C09         -0.6630     1.7760     1.5640 c3         1 9SR       0.108100
     11 C11         -0.6990     0.2770     1.2550 c3         1 9SR       0.261200
     12 C19         -2.1530    -0.1880     1.1840 c3         1 9SR       0.117100
     13 N14          2.0650     0.0000     1.0950 n2         1 9SR      -0.658900
     14 N18          2.0430    -0.0000    -1.2030 nz         1 9SR      -0.744600
     15 O01         -2.7180     1.5210     2.7960 os         1 9SR      -0.423600
     16 O04         -2.1320    -2.0510     3.3280 oh         1 9SR      -0.598800
     17 O06         -0.6930     1.2480     3.9190 os         1 9SR      -0.430600
     18 O08         -1.3790     3.3850     3.2280 oh         1 9SR      -0.544800
     19 O10          0.6920     2.2200     1.6560 oh         1 9SR      -0.614800
     20 O16          2.2380    -0.8290     3.2880 oh         1 9SR      -0.575800
     21 O20         -2.8250     0.5030     0.1290 oh         1 9SR      -0.601800
     22 O22         -4.1880    -0.8600     4.8730 oh         1 9SR      -0.610800
     23 H1           1.4920     1.0340     2.8120 h2         1 9SR       0.140700
     24 H2           0.0020    -1.5430     2.1900 hc         1 9SR       0.111700
     25 H3          -2.3260    -0.9650     5.7500 h1         1 9SR       0.049200
     26 H4          -2.8170     0.6430     5.2010 h1         1 9SR       0.049200
     27 H5          -3.8820    -0.1610     2.4790 h1         1 9SR       0.137700
     28 H6          -0.1560    -0.6580     4.5250 h1         1 9SR       0.122700
     29 H7          -1.1770     2.3240     0.7830 h1         1 9SR       0.093700
     30 H8          -2.1850    -1.2550     0.9980 h1         1 9SR       0.082700
     31 H10          1.7030     0.7490    -1.7720 hn         1 9SR       0.472800
     32 H11          1.8870    -0.8720    -1.6700 hn         1 9SR       0.472800
     33 H12         -2.2620    -2.5460     4.1200 ho         1 9SR       0.433000
     34 H13         -2.0570     3.5590     3.8600 ho         1 9SR       0.445000
     35 H14          0.7440     3.1260     1.4010 ho         1 9SR       0.431000
     36 H15          3.0970    -0.4620     3.4110 ho         1 9SR       0.431000
     37 H16         -3.4570    -0.0710    -0.2710 ho         1 9SR       0.426000
     38 H17         -4.6080    -0.7700     5.7120 ho         1 9SR       0.426000
     39 H18         -0.5110    -0.1850    -0.8400 hn         1 9SR       0.453800
     40 H183         3.0220     0.1290    -1.0420 hn         1 9SR       0.472800
@<TRIPOS>BOND
     1    14     2 1
     2    13     2 2
     3    13     3 1
     4    19    10 1
     5     2     1 1
     6    20     3 1
     7     3     4 1
     8     1    11 1
     9    10    11 1
    10    10     9 1
    11    18     9 1
    12     4    11 1
    13     4     8 1
    14    11    12 1
    15    17     9 1
    16    17     8 1
    17     9    15 1
    18     8     7 1
    19    12    21 1
    20    12     6 1
    21    15     6 1
    22     7     6 1
    23     7    16 1
    24     7     5 1
    25    22     5 1
    26     3    23 1
    27     4    24 1
    28     5    25 1
    29     5    26 1
    30     6    27 1
    31     8    28 1
    32    10    29 1
    33    12    30 1
    34    14    31 1
    35    14    32 1
    36    16    33 1
    37    18    34 1
    38    19    35 1
    39    20    36 1
    40    21    37 1
    41    22    38 1
    42     1    39 1
    43    40    14 1
@<TRIPOS>SUBSTRUCTURE
     1 9SR         1 TEMP              0 ****  ****    0 ROOT
