@<TRIPOS>MOLECULE
molecule
   44    46     1     0     0
SMALL
bcc


@<TRIPOS>ATOM
      1 C20          0.0000     0.0000     0.0000 ca         1 9ST      -0.122500
      2 C22          1.3820     0.0000     0.0000 ca         1 9ST      -0.125000
      3 C24          2.0740     0.0000     1.1970 ca         1 9ST      -0.126000
      4 C26          1.3830    -0.0000     2.3940 ca         1 9ST      -0.125000
      5 C28          0.0010     0.0010     2.3950 ca         1 9ST      -0.122500
      6 N05         -4.1780    -1.2270     0.4490 n3         1 9ST      -0.734600
      7 C06         -4.6910    -0.0560    -0.2740 c3         1 9ST       0.140800
      8 C09         -4.2390     1.2230     0.4350 c3         1 9ST       0.227500
      9 C11         -2.7080     1.2600     0.4830 c3         1 9ST      -0.085400
     10 C14         -2.1980     0.0070     1.1980 c3         1 9ST      -0.018400
     11 C16         -2.7090    -1.2360     0.4670 c3         1 9ST       0.165800
     12 C19         -0.6910     0.0060     1.1980 ca         1 9ST      -0.086300
     13 N30         -4.7350     2.3900    -0.2980 nu         1 9ST      -0.787000
     14 C32         -6.0120     2.8670    -0.0570 cc         1 9ST       0.136400
     15 C33         -6.8410     2.2340     0.8930 cc         1 9ST       0.342500
     16 N35         -8.0450     2.6820     1.1200 nd         1 9ST      -0.401300
     17 N36         -8.5420     3.7940     0.4340 n          1 9ST      -0.210800
     18 C37         -9.8980     4.2730     0.7140 c3         1 9ST       0.120300
     19 C41         -7.7840     4.4300    -0.4810 c          1 9ST       0.696700
     20 O42         -8.2230     5.4040    -1.0720 o          1 9ST      -0.634500
     21 C43         -6.4850     3.9720    -0.7420 cd         1 9ST      -0.258500
     22 Br          -5.3990     4.8450    -2.0210 br         1 9ST      -0.040700
     23 H1          -0.5420     0.0020    -0.9380 ha         1 9ST       0.130500
     24 H2           1.9230    -0.0020    -0.9380 ha         1 9ST       0.131500
     25 H3           3.1570    -0.0000     1.1960 ha         1 9ST       0.131000
     26 H4           1.9250    -0.0020     3.3320 ha         1 9ST       0.131500
     27 H5          -0.5400     0.0030     3.3330 ha         1 9ST       0.130500
     28 H6          -4.3140    -3.3180     0.4290 h1         1 9ST       0.036033
     29 H7          -4.4090    -2.5480    -1.1610 h1         1 9ST       0.036033
     30 H8          -5.7880    -2.4690    -0.0560 h1         1 9ST       0.036033
     31 H11         -4.3060    -0.0610    -1.2860 h1         1 9ST       0.043700
     32 H12         -4.6300     1.2310     1.4450 h1         1 9ST       0.072700
     33 H13         -2.3160     1.2850    -0.5270 hc         1 9ST       0.055700
     34 H14         -2.3860     2.1410     1.0240 hc         1 9ST       0.055700
     35 H15         -2.5630     0.0000     2.2180 hc         1 9ST       0.071700
     36 H16         -2.3370    -1.2330    -0.5500 h1         1 9ST       0.042700
     37 H17         -2.3620    -2.1240     0.9820 h1         1 9ST       0.042700
     38 H18         -6.4760     1.3710     1.4360 h4         1 9ST       0.064800
     39 H19         -9.8540     5.2940     1.0730 h1         1 9ST       0.057367
     40 H20        -10.3550     3.6440     1.4680 h1         1 9ST       0.057367
     41 H21        -10.4890     4.2350    -0.1940 h1         1 9ST       0.057367
     42 H9          -4.1420     2.8560    -0.9560 hn         1 9ST       0.461800
     43 H10         -5.7730    -0.0920    -0.2940 h1         1 9ST       0.043700
     44 C01         -4.7070    -2.4720    -0.1220 c3         1 9ST       0.155100
@<TRIPOS>BOND
     1    22    21 1
     2    20    19 2
     3    19    21 1
     4    19    17 1
     5    21    14 2
     6    14    13 1
     7    14    15 1
     8    17    18 1
     9    17    16 1
    10    13     8 1
    11     9     8 1
    12     9    10 1
    13    15    16 2
    14     8     7 1
    15     4     5 ar
    16     4     3 ar
    17     5    12 ar
    18     7     6 1
    19     3     2 ar
    20    12    10 1
    21    12     1 ar
    22    10    11 1
    23    11     6 1
    24     2     1 ar
    25     6    44 1
    26     1    23 1
    27     2    24 1
    28     3    25 1
    29     4    26 1
    30     5    27 1
    31    44    28 1
    32    44    29 1
    33    44    30 1
    34     7    43 1
    35     7    31 1
    36     8    32 1
    37     9    33 1
    38     9    34 1
    39    10    35 1
    40    11    36 1
    41    11    37 1
    42    15    38 1
    43    18    39 1
    44    18    40 1
    45    18    41 1
    46    13    42 1
@<TRIPOS>SUBSTRUCTURE
     1 9ST         1 TEMP              0 ****  ****    0 ROOT
