@<TRIPOS>MOLECULE
9ST
   44    46     1     0     0
SMALL
bcc


@<TRIPOS>ATOM
      1 C20          0.0000     0.0000     0.0000 ca         1 9ST      -0.098000
      2 C22          1.3820     0.0000     0.0000 ca         1 9ST      -0.096500
      3 C24          2.0740     0.0000     1.1970 ca         1 9ST      -0.100000
      4 C26          1.3830    -0.0000     2.3940 ca         1 9ST      -0.096500
      5 C28          0.0010     0.0010     2.3950 ca         1 9ST      -0.098000
      6 N05         -4.1780    -1.2270     0.4490 n3         1 9ST      -0.539600
      7 C06         -4.6910    -0.0560    -0.2740 c3         1 9ST       0.129800
      8 C09         -4.2390     1.2230     0.4350 c3         1 9ST       0.116500
      9 C11         -2.7080     1.2600     0.4830 c3         1 9ST      -0.034400
     10 C14         -2.1980     0.0070     1.1980 c3         1 9ST       0.015600
     11 C16         -2.7090    -1.2360     0.4670 c3         1 9ST       0.149800
     12 C19         -0.6910     0.0060     1.1980 ca         1 9ST      -0.092300
     13 N30         -4.7350     2.3900    -0.2980 nu         1 9ST      -0.368000
     14 C32         -6.0120     2.8670    -0.0570 cc         1 9ST      -0.017600
     15 C33         -6.8410     2.2340     0.8930 cc         1 9ST       0.362500
     16 N35         -8.0450     2.6820     1.1200 nd         1 9ST      -0.478300
     17 N36         -8.5420     3.7940     0.4340 n          1 9ST       0.141200
     18 C37         -9.8980     4.2730     0.7140 c3         1 9ST       0.096300
     19 C41         -7.7840     4.4300    -0.4810 c          1 9ST       0.619700
     20 O42         -8.2230     5.4040    -1.0720 o          1 9ST      -0.682500
     21 C43         -6.4850     3.9720    -0.7420 cd         1 9ST      -0.230500
     22 Br          -5.3990     4.8450    -2.0210 br         1 9ST      -0.050700
     23 H1          -0.5420     0.0020    -0.9380 ha         1 9ST       0.107000
     24 H2           1.9230    -0.0020    -0.9380 ha         1 9ST       0.103500
     25 H3           3.1570    -0.0000     1.1960 ha         1 9ST       0.104000
     26 H4           1.9250    -0.0020     3.3320 ha         1 9ST       0.103500
     27 H5          -0.5400     0.0030     3.3330 ha         1 9ST       0.107000
     28 H6          -4.3140    -3.3180     0.4290 h1         1 9ST       0.003033
     29 H7          -4.4090    -2.5480    -1.1610 h1         1 9ST       0.003033
     30 H8          -5.7880    -2.4690    -0.0560 h1         1 9ST       0.003033
     31 H11         -4.3060    -0.0610    -1.2860 h1         1 9ST       0.018700
     32 H12         -4.6300     1.2310     1.4450 h1         1 9ST       0.053700
     33 H13         -2.3160     1.2850    -0.5270 hc         1 9ST       0.027700
     34 H14         -2.3860     2.1410     1.0240 hc         1 9ST       0.027700
     35 H15         -2.5630     0.0000     2.2180 hc         1 9ST       0.043700
     36 H16         -2.3370    -1.2330    -0.5500 h1         1 9ST       0.017700
     37 H17         -2.3620    -2.1240     0.9820 h1         1 9ST       0.017700
     38 H18         -6.4760     1.3710     1.4360 h4         1 9ST       0.021800
     39 H19         -9.8540     5.2940     1.0730 h1         1 9ST       0.022033
     40 H20        -10.3550     3.6440     1.4680 h1         1 9ST       0.022033
     41 H21        -10.4890     4.2350    -0.1940 h1         1 9ST       0.022033
     42 H9          -4.1420     2.8560    -0.9560 hn         1 9ST       0.310800
     43 H10         -5.7730    -0.0920    -0.2940 h1         1 9ST       0.018700
     44 C01         -4.7070    -2.4720    -0.1220 c3         1 9ST       0.188100
@<TRIPOS>BOND
     1     1     2 ar  
     2     1    12 ar  
     3     1    23 1   
     4     2     3 ar  
     5     2    24 1   
     6     3     4 ar  
     7     3    25 1   
     8     4     5 ar  
     9     4    26 1   
    10     5    12 ar  
    11     5    27 1   
    12     6     7 1   
    13     6    11 1   
    14     6    44 1   
    15     7     8 1   
    16     7    31 1   
    17     7    43 1   
    18     8     9 1   
    19     8    13 1   
    20     8    32 1   
    21     9    10 1   
    22     9    33 1   
    23     9    34 1   
    24    10    11 1   
    25    10    12 1   
    26    10    35 1   
    27    11    36 1   
    28    11    37 1   
    29    13    14 1   
    30    13    42 1   
    31    14    15 1   
    32    14    21 2   
    33    15    16 2   
    34    15    38 1   
    35    16    17 1   
    36    17    18 1   
    37    17    19 1   
    38    18    39 1   
    39    18    40 1   
    40    18    41 1   
    41    19    20 2   
    42    19    21 1   
    43    21    22 1   
    44    28    44 1   
    45    29    44 1   
    46    30    44 1   
@<TRIPOS>SUBSTRUCTURE
     1 9ST         1 TEMP              0 ****  ****    0 ROOT
