@<TRIPOS>MOLECULE
9SV
   46    49     1     0     0
SMALL
bcc


@<TRIPOS>ATOM
      1 C1           0.0000     0.0000     0.0000 c3         1 9SV       0.130800
      2 C2           1.5320     0.0000     0.0000 c3         1 9SV       0.194800
      3 C3           1.4490     1.0090     2.3120 c3         1 9SV       0.194800
      4 C4          -0.0800     0.9690     2.2210 c3         1 9SV       0.130800
      5 C6           4.1990    -0.9190     1.3220 cc         1 9SV      -0.106600
      6 C13          5.9270    -3.4180     3.6310 ca         1 9SV      -0.050000
      7 C14          2.5580    -1.9270     2.8500 c          1 9SV       0.612900
      8 O1           1.3880    -2.1090     3.1270 o          1 9SV      -0.532100
      9 C5           2.9360    -0.9320     1.8350 cd         1 9SV       0.054800
     10 N1           1.9990     0.0000     1.3950 nh         1 9SV      -0.405400
     11 N           -0.4870     1.1190     0.8170 n3         1 9SV      -0.541600
     12 C           -1.9440     1.2580     0.7040 c3         1 9SV       0.188100
     13 C9           3.6180    -2.7050     3.5330 ca         1 9SV      -0.149600
     14 C10          3.3430    -3.4400     4.6770 ca         1 9SV      -0.047000
     15 C11          4.3570    -4.1580     5.2920 ca         1 9SV      -0.092000
     16 C12          5.6380    -4.1480     4.7750 ca         1 9SV      -0.085000
     17 C8           4.9260    -2.6900     3.0080 ca         1 9SV      -0.134600
     18 C7           5.1980    -1.9030     1.7830 c          1 9SV       0.634900
     19 O            6.2310    -2.0660     1.1650 o          1 9SV      -0.519100
     20 H1          -0.3600     0.1120    -1.0160 h1         1 9SV       0.019200
     21 H2          -0.3600    -0.9330     0.4160 h1         1 9SV       0.019200
     22 H3           1.8950    -0.8870    -0.5040 h1         1 9SV       0.027700
     23 H4           1.8950     0.8870    -0.5040 h1         1 9SV       0.027700
     24 H5           1.8040     1.9910     2.0260 h1         1 9SV       0.027700
     25 H6           1.7580     0.7840     3.3260 h1         1 9SV       0.027700
     26 H7          -0.4390     0.0200     2.6010 h1         1 9SV       0.019200
     27 H8          -0.4970     1.7800     2.8060 h1         1 9SV       0.019200
     28 H10          6.9330    -3.4130     3.2290 ha         1 9SV       0.127000
     29 H12         -2.2130     1.4050    -0.3350 h1         1 9SV       0.000700
     30 H13         -2.4230     0.3620     1.0780 h1         1 9SV       0.000700
     31 H14         -2.2720     2.1120     1.2860 h1         1 9SV       0.000700
     32 H15          2.3410    -3.4520     5.0890 ha         1 9SV       0.123000
     33 H16          4.1430    -4.7320     6.1860 ha         1 9SV       0.108000
     34 H17          6.4210    -4.7140     5.2650 ha         1 9SV       0.109000
     35 C16          5.8250     1.2130     1.0040 ca         1 9SV       0.069900
     36 C15          6.5590     2.2070     0.3660 ca         1 9SV      -0.097000
     37 C17          7.4870     2.9410     1.0770 ca         1 9SV      -0.088000
     38 C18          7.6880     2.6880     2.4220 ca         1 9SV      -0.104000
     39 C19          6.9610     1.7000     3.0600 ca         1 9SV      -0.088000
     40 C20          6.0270     0.9650     2.3570 ca         1 9SV      -0.097000
     41 H9           6.4020     2.4060    -0.6870 ha         1 9SV       0.116000
     42 H11          8.0580     3.7160     0.5810 ha         1 9SV       0.103000
     43 H18          8.4190     3.2640     2.9770 ha         1 9SV       0.103000
     44 H19          7.1210     1.5060     4.1140 ha         1 9SV       0.103000
     45 H20          5.4570     0.1910     2.8570 ha         1 9SV       0.116000
     46 S1           4.6390     0.2730     0.1020 ss         1 9SV      -0.272500
@<TRIPOS>BOND
     1     1     2 1   
     2     1    11 1   
     3     1    20 1   
     4     1    21 1   
     5     2    10 1   
     6     2    22 1   
     7     2    23 1   
     8     3     4 1   
     9     3    10 1   
    10     3    24 1   
    11     3    25 1   
    12     4    11 1   
    13     4    26 1   
    14     4    27 1   
    15     5     9 2   
    16     5    18 1   
    17     5    46 1   
    18     6    16 ar  
    19     6    17 ar  
    20     6    28 1   
    21     7     8 2   
    22     7     9 1   
    23     7    13 1   
    24     9    10 1   
    25    11    12 1   
    26    12    29 1   
    27    12    30 1   
    28    12    31 1   
    29    13    14 ar  
    30    13    17 ar  
    31    14    15 ar  
    32    14    32 1   
    33    15    16 ar  
    34    15    33 1   
    35    16    34 1   
    36    17    18 1   
    37    18    19 2   
    38    35    36 ar  
    39    35    40 ar  
    40    35    46 1   
    41    36    37 ar  
    42    36    41 1   
    43    37    38 ar  
    44    37    42 1   
    45    38    39 ar  
    46    38    43 1   
    47    39    40 ar  
    48    39    44 1   
    49    40    45 1   
@<TRIPOS>SUBSTRUCTURE
     1 9SV         1 TEMP              0 ****  ****    0 ROOT
