@<TRIPOS>MOLECULE
molecule
   46    49     1     0     0
SMALL
bcc


@<TRIPOS>ATOM
      1 C1           0.0000     0.0000     0.0000 c3         1 9SV       0.141300
      2 C2           1.5320     0.0000     0.0000 c3         1 9SV       0.256800
      3 C3           1.4490     1.0090     2.3120 c3         1 9SV       0.256800
      4 C4          -0.0800     0.9690     2.2210 c3         1 9SV       0.141300
      5 C6           4.1990    -0.9190     1.3220 cc         1 9SV      -0.127600
      6 C13          5.9270    -3.4180     3.6310 ca         1 9SV      -0.081000
      7 C14          2.5580    -1.9270     2.8500 c          1 9SV       0.556900
      8 O1           1.3880    -2.1090     3.1270 o          1 9SV      -0.495100
      9 C5           2.9360    -0.9320     1.8350 cd         1 9SV       0.165800
     10 N1           1.9990     0.0000     1.3950 nh         1 9SV      -0.753400
     11 N           -0.4870     1.1190     0.8170 n3         1 9SV      -0.729600
     12 C           -1.9440     1.2580     0.7040 c3         1 9SV       0.153100
     13 C9           3.6180    -2.7050     3.5330 ca         1 9SV      -0.141600
     14 C10          3.3430    -3.4400     4.6770 ca         1 9SV      -0.079000
     15 C11          4.3570    -4.1580     5.2920 ca         1 9SV      -0.119000
     16 C12          5.6380    -4.1480     4.7750 ca         1 9SV      -0.113000
     17 C8           4.9260    -2.6900     3.0080 ca         1 9SV      -0.130600
     18 C7           5.1980    -1.9030     1.7830 c          1 9SV       0.577900
     19 O            6.2310    -2.0660     1.1650 o          1 9SV      -0.490100
     20 H1          -0.3600     0.1120    -1.0160 h1         1 9SV       0.044700
     21 H2          -0.3600    -0.9330     0.4160 h1         1 9SV       0.044700
     22 H3           1.8950    -0.8870    -0.5040 h1         1 9SV       0.054450
     23 H4           1.8950     0.8870    -0.5040 h1         1 9SV       0.054450
     24 H5           1.8040     1.9910     2.0260 h1         1 9SV       0.054450
     25 H6           1.7580     0.7840     3.3260 h1         1 9SV       0.054450
     26 H7          -0.4390     0.0200     2.6010 h1         1 9SV       0.044700
     27 H8          -0.4970     1.7800     2.8060 h1         1 9SV       0.044700
     28 H10          6.9330    -3.4130     3.2290 ha         1 9SV       0.158000
     29 H12         -2.2130     1.4050    -0.3350 h1         1 9SV       0.033033
     30 H13         -2.4230     0.3620     1.0780 h1         1 9SV       0.033033
     31 H14         -2.2720     2.1120     1.2860 h1         1 9SV       0.033033
     32 H15          2.3410    -3.4520     5.0890 ha         1 9SV       0.154000
     33 H16          4.1430    -4.7320     6.1860 ha         1 9SV       0.139000
     34 H17          6.4210    -4.7140     5.2650 ha         1 9SV       0.140000
     35 C16          5.8250     1.2130     1.0040 ca         1 9SV       0.028900
     36 C15          6.5590     2.2070     0.3660 ca         1 9SV      -0.124000
     37 C17          7.4870     2.9410     1.0770 ca         1 9SV      -0.113500
     38 C18          7.6880     2.6880     2.4220 ca         1 9SV      -0.135000
     39 C19          6.9610     1.7000     3.0600 ca         1 9SV      -0.113500
     40 C20          6.0270     0.9650     2.3570 ca         1 9SV      -0.124000
     41 H9           6.4020     2.4060    -0.6870 ha         1 9SV       0.135000
     42 H11          8.0580     3.7160     0.5810 ha         1 9SV       0.130500
     43 H18          8.4190     3.2640     2.9770 ha         1 9SV       0.129000
     44 H19          7.1210     1.5060     4.1140 ha         1 9SV       0.130500
     45 H20          5.4570     0.1910     2.8570 ha         1 9SV       0.135000
     46 S1           4.6390     0.2730     0.1020 ss         1 9SV      -0.155500
@<TRIPOS>BOND
     1    12    11 1
     2     1    11 1
     3     1     2 1
     4    11     4 1
     5     4     3 1
     6     2    10 1
     7     8     7 2
     8    10     3 1
     9    10     9 1
    10     7     9 1
    11     7    13 1
    12     9     5 2
    13    14    13 ar
    14    14    15 ar
    15    13    17 ar
    16     5    18 1
    17    15    16 ar
    18    17    18 1
    19    17     6 ar
    20    18    19 2
    21    16     6 ar
    22     1    20 1
    23     1    21 1
    24     2    22 1
    25     2    23 1
    26     3    24 1
    27     3    25 1
    28     4    26 1
    29     4    27 1
    30     6    28 1
    31    12    29 1
    32    12    30 1
    33    12    31 1
    34    14    32 1
    35    15    33 1
    36    16    34 1
    37     5    46 1
    38    46    35 1
    39    35    36 ar
    40    36    37 ar
    41    37    38 ar
    42    38    39 ar
    43    39    40 ar
    44    40    35 ar
    45    36    41 1
    46    37    42 1
    47    38    43 1
    48    39    44 1
    49    40    45 1
@<TRIPOS>SUBSTRUCTURE
     1 9SV         1 TEMP              0 ****  ****    0 ROOT
