@<TRIPOS>MOLECULE
molecule
   68    67     1     0     0
SMALL
bcc


@<TRIPOS>ATOM
      1 C10          0.0000     0.0000     0.0000 c3         1 9SW      -0.089400
      2 C13          1.7170     1.1490    -2.1890 c          1 9SW       0.644100
      3 C15          6.4710    -0.9130     4.3510 c3         1 9SW       0.220700
      4 C20         -2.5400    -0.6890    -2.8110 c3         1 9SW      -0.082400
      5 C21         -4.0610    -0.8530    -2.7840 c3         1 9SW      -0.082400
      6 C22         -4.5710    -1.1160    -4.2020 c3         1 9SW      -0.082400
      7 C24         -6.6020    -1.5420    -5.5940 c3         1 9SW      -0.082400
      8 C26         -8.6320    -1.9680    -6.9860 c3         1 9SW      -0.081400
      9 C28        -10.6630    -2.3940    -8.3780 c3         1 9SW      -0.092100
     10 C03          3.5600    -0.1650     1.4460 c3         1 9SW      -0.264600
     11 C08          1.5300     0.0000     0.0000 c3         1 9SW      -0.057700
     12 C09          2.0400     1.2500    -0.7210 c3         1 9SW      -0.210700
     13 C11          2.0400     0.0000     1.4430 c3         1 9SW      -0.045400
     14 C12          1.3730     2.4710    -0.1420 c          1 9SW       0.577100
     15 C14          2.0580     3.2610     0.9420 c3         1 9SW      -0.187100
     16 C16          1.9410     0.1510    -4.3420 c3         1 9SW       0.136700
     17 C18         -0.5100    -0.2630    -1.4190 c3         1 9SW      -0.102400
     18 C19         -2.0310    -0.4270    -1.3920 c3         1 9SW      -0.075400
     19 C23         -6.0920    -1.2790    -4.1760 c3         1 9SW      -0.082400
     20 C25         -8.1230    -1.7040    -5.5670 c3         1 9SW      -0.082400
     21 C27        -10.1540    -2.1310    -6.9590 c3         1 9SW      -0.084400
     22 O04          0.2880     2.8150    -0.5480 o          1 9SW      -0.515100
     23 O05          5.7310    -0.6310     3.1620 os         1 9SW      -0.616200
     24 O07          3.4340    -1.4390     3.8290 o          1 9SW      -0.820000
     25 O17          3.8680     1.0440     3.9590 o          1 9SW      -0.820000
     26 P01          4.1500    -0.3270     3.1640 p5         1 9SW       1.177600
     27 H1          -0.3610    -0.7760     0.6640 hc         1 9SW       0.053700
     28 H2          -0.3610     0.9630     0.3410 hc         1 9SW       0.053700
     29 H3           7.5310    -0.8720     4.1350 h1         1 9SW       0.012700
     30 H4           6.2140    -1.9030     4.7100 h1         1 9SW       0.012700
     31 H5           6.2280    -0.1790     5.1110 h1         1 9SW       0.012700
     32 H6          -2.2780     0.1460    -3.4490 hc         1 9SW       0.039700
     33 H7          -2.0860    -1.5940    -3.1960 hc         1 9SW       0.039700
     34 H8          -4.5150     0.0520    -2.3990 hc         1 9SW       0.040200
     35 H9          -4.3230    -1.6880    -2.1450 hc         1 9SW       0.040200
     36 H10         -4.3080    -0.2810    -4.8410 hc         1 9SW       0.039200
     37 H11         -4.1170    -2.0210    -4.5870 hc         1 9SW       0.039200
     38 H12         -6.1490    -2.4480    -5.9790 hc         1 9SW       0.040200
     39 H13         -6.3390    -0.7080    -6.2330 hc         1 9SW       0.040200
     40 H14         -8.1790    -2.8730    -7.3700 hc         1 9SW       0.040200
     41 H15         -8.3700    -1.1330    -7.6240 hc         1 9SW       0.040200
     42 H16        -10.2150    -3.3040    -8.7590 hc         1 9SW       0.030700
     43 H17        -10.3950    -1.5630    -9.0180 hc         1 9SW       0.030700
     44 H18        -11.7410    -2.5030    -8.3600 hc         1 9SW       0.030700
     45 H19          4.0190     0.7020     0.9870 hc         1 9SW       0.041200
     46 H20          1.8910    -0.8840    -0.5110 hc         1 9SW       0.066700
     47 H21          3.1120     1.3290    -0.5910 hc         1 9SW       0.100700
     48 H22          1.7770     0.9370     1.9190 hc         1 9SW       0.063700
     49 H23          3.0980     2.9650     1.0020 hc         1 9SW       0.069033
     50 H24          1.5720     3.0690     1.8910 hc         1 9SW       0.069033
     51 H25          1.9970     4.3180     0.7120 hc         1 9SW       0.069033
     52 H26          2.1980    -0.8080    -4.7730 h1         1 9SW       0.042700
     53 H27          2.5350     0.9280    -4.8090 h1         1 9SW       0.042700
     54 H28          0.8890     0.3520    -4.5080 h1         1 9SW       0.042700
     55 H29         -0.2480     0.5710    -2.0580 hc         1 9SW       0.050200
     56 H30         -0.0570    -1.1690    -1.8030 hc         1 9SW       0.050200
     57 H31         -2.4850     0.4790    -1.0070 hc         1 9SW       0.040700
     58 H32         -2.2940    -1.2610    -0.7540 hc         1 9SW       0.040700
     59 H33         -6.3550    -2.1130    -3.5380 hc         1 9SW       0.040200
     60 H34         -6.5460    -0.3730    -3.7920 hc         1 9SW       0.040200
     61 H35         -8.5760    -0.7990    -5.1830 hc         1 9SW       0.040700
     62 H36         -8.3860    -2.5390    -4.9280 hc         1 9SW       0.040700
     63 H37        -10.6080    -1.2250    -6.5750 hc         1 9SW       0.039700
     64 H38        -10.4170    -2.9660    -6.3210 hc         1 9SW       0.039700
     65 H40          3.8280    -1.0540     0.8870 hc         1 9SW       0.041200
     66 H41          1.5860    -0.8200     1.9860 hc         1 9SW       0.063700
     67 O02          2.1940     0.1230    -2.9120 os         1 9SW      -0.427900
     68 O06          1.0290     1.9920    -2.7160 o          1 9SW      -0.545000
@<TRIPOS>BOND
     1    24    26 1
     2     3    23 1
     3    23    26 1
     4    25    26 1
     5    26    10 1
     6    10    13 1
     7    15    14 1
     8    13    11 1
     9    14    22 2
    10    14    12 1
    11    11    12 1
    12    11     1 1
    13    12     2 1
    14    17     1 1
    15    17    18 1
    16     2    67 1
    17     2    68 2
    18    67    16 1
    19    18     4 1
    20     4     5 1
    21     5     6 1
    22     6    19 1
    23    19     7 1
    24     7    20 1
    25    20     8 1
    26     8    21 1
    27    21     9 1
    28     1    27 1
    29     1    28 1
    30     3    29 1
    31     3    30 1
    32     3    31 1
    33     4    32 1
    34     4    33 1
    35     5    34 1
    36     5    35 1
    37     6    36 1
    38     6    37 1
    39     7    38 1
    40     7    39 1
    41     8    40 1
    42     8    41 1
    43     9    42 1
    44     9    43 1
    45     9    44 1
    46    10    45 1
    47    11    46 1
    48    12    47 1
    49    13    48 1
    50    15    49 1
    51    15    50 1
    52    15    51 1
    53    16    52 1
    54    16    53 1
    55    16    54 1
    56    17    55 1
    57    17    56 1
    58    18    57 1
    59    18    58 1
    60    19    59 1
    61    19    60 1
    62    20    61 1
    63    20    62 1
    64    21    63 1
    65    21    64 1
    66    10    65 1
    67    13    66 1
@<TRIPOS>SUBSTRUCTURE
     1 9SW         1 TEMP              0 ****  ****    0 ROOT
