@<TRIPOS>MOLECULE
9T2
   38    40     1     0     0
SMALL
bcc


@<TRIPOS>ATOM
      1 C14          0.0000     0.0000     0.0000 cc         1 9T2       0.079500
      2 C26         -2.9710    -0.0160    -2.2460 cc         1 9T2       0.304200
      3 C16          1.0080     0.0080     2.2870 cc         1 9T2       0.159800
      4 C12         -2.1310    -0.0100    -1.0310 c          1 9T2       0.501800
      5 C17          1.9320     0.0000     1.3350 cd         1 9T2      -0.127000
      6 C18          1.3710     0.0000     0.0000 cd         1 9T2      -0.285600
      7 C29         -4.8870    -0.0260    -3.4280 ca         1 9T2       0.037400
      8 C28         -4.0020    -0.0350    -4.5180 ca         1 9T2       0.008900
      9 O12         -2.6510    -0.0100     0.0680 o          1 9T2      -0.570100
     10 S27         -2.3550    -0.0240    -3.8930 ss         1 9T2      -0.195100
     11 C34         -4.4940    -0.0490    -5.8230 ca         1 9T2      -0.058000
     12 C33         -5.8510    -0.0540    -6.0480 ca         1 9T2      -0.069000
     13 C32         -6.7340    -0.0460    -4.9740 ca         1 9T2      -0.106000
     14 C31         -6.2760    -0.0320    -3.6950 ca         1 9T2      -0.024000
     15 N30         -4.2610    -0.0210    -2.2510 nd         1 9T2      -0.340100
     16 N13         -0.7880    -0.0050    -1.1390 ns         1 9T2       0.025900
     17 S15         -0.6040    -0.0000     1.5940 ss         1 9T2      -0.107800
     18 F16          1.2730     0.0110     3.6120 f          1 9T2      -0.093900
     19 C19          2.1820     0.0000    -1.2200 c          1 9T2       0.631700
     20 O19          1.6400     0.0010    -2.3100 o          1 9T2      -0.596100
     21 N20          3.5270     0.0010    -1.1350 ns         1 9T2      -0.126500
     22 C21          4.2720     0.0010    -2.2580 c          1 9T2       0.662100
     23 O22          3.7320     0.0010    -3.3470 o          1 9T2      -0.574000
     24 O21          5.6160     0.0020    -2.1740 os         1 9T2      -0.430900
     25 C37          6.3550     0.0020    -3.4230 c3         1 9T2       0.244400
     26 C38          7.8560     0.0030    -3.1280 c3         1 9T2      -0.005100
     27 H1           2.9970     0.0010     1.5350 ha         1 9T2       0.131000
     28 H2          -3.8070    -0.0550    -6.6600 ha         1 9T2       0.116000
     29 H3          -6.2310    -0.0650    -7.0620 ha         1 9T2       0.109000
     30 H4          -7.8020    -0.0500    -5.1600 ha         1 9T2       0.110000
     31 H5          -6.9810    -0.0260    -2.8720 ha         1 9T2       0.117000
     32 H6          -0.3590    -0.0030    -2.0440 hn         1 9T2       0.231500
     33 H7           3.9720    -0.0400    -0.2400 hn         1 9T2       0.180500
     34 H8           6.1000    -0.8830    -3.9930 h1         1 9T2       0.011700
     35 H9           6.0980     0.8860    -3.9940 h1         1 9T2       0.011700
     36 H10          8.1110     0.8880    -2.5570 hc         1 9T2       0.011033
     37 H11          8.1130    -0.8810    -2.5570 hc         1 9T2       0.011033
     38 H12          8.4080     0.0040    -4.0610 hc         1 9T2       0.011033
@<TRIPOS>BOND
     1     1     6 2   
     2     1    16 1   
     3     1    17 1   
     4     2     4 1   
     5     2    10 1   
     6     2    15 2   
     7     3     5 2   
     8     3    17 1   
     9     3    18 1   
    10     4     9 2   
    11     4    16 1   
    12     5     6 1   
    13     5    27 1   
    14     6    19 1   
    15     7     8 ar  
    16     7    14 ar  
    17     7    15 1   
    18     8    10 1   
    19     8    11 ar  
    20    11    12 ar  
    21    11    28 1   
    22    12    13 ar  
    23    12    29 1   
    24    13    14 ar  
    25    13    30 1   
    26    14    31 1   
    27    16    32 1   
    28    19    20 2   
    29    19    21 1   
    30    21    22 1   
    31    21    33 1   
    32    22    23 2   
    33    22    24 1   
    34    24    25 1   
    35    25    26 1   
    36    25    34 1   
    37    25    35 1   
    38    26    36 1   
    39    26    37 1   
    40    26    38 1   
@<TRIPOS>SUBSTRUCTURE
     1 9T2         1 TEMP              0 ****  ****    0 ROOT
