@<TRIPOS>MOLECULE
molecule
   47    51     1     0     0
SMALL
bcc


@<TRIPOS>ATOM
      1 C9           0.0000     0.0000     0.0000 cc         1 9T6      -0.147200
      2 C3          -0.4560     0.0120     4.1400 ca         1 9T6       0.471200
      3 C8           1.3420     0.0000     0.0000 cd         1 9T6      -0.083100
      4 C5          -0.4220     0.0050     1.4020 ca         1 9T6      -0.233100
      5 C2          -1.6770     0.0140     3.4560 ca         1 9T6      -0.437900
      6 C1          -1.6680     0.0110     2.0470 ca         1 9T6       0.355600
      7 C6           0.7560     0.0030     2.1680 ca         1 9T6       0.504800
      8 C10         -2.9500     0.0190     4.1950 c          1 9T6       0.518700
      9 C19         -3.0550    -1.3540    -1.2220 c3         1 9T6      -0.067400
     10 C23         -5.2040    -0.4910    -0.2820 c3         1 9T6      -0.067400
     11 C22         -5.1640    -2.6590    -1.5240 c3         1 9T6      -0.102400
     12 C15         -3.3810    -3.5030     0.0080 c3         1 9T6      -0.076400
     13 C16         -5.5290    -2.6420     0.9480 c3         1 9T6      -0.076400
     14 C21         -4.5670    -1.2530    -1.4460 c3         1 9T6      -0.062700
     15 C14         -2.7820    -2.0980     0.0870 c3         1 9T6      -0.071200
     16 C17         -4.9310    -1.2350     1.0260 c3         1 9T6      -0.071200
     17 C18         -3.4200    -1.3360     1.2500 c3         1 9T6       0.239500
     18 C20         -4.8910    -3.4030    -0.2150 c3         1 9T6       0.157800
     19 N4           0.6890     0.0060     3.4980 nb         1 9T6      -0.680000
     20 N7           1.8080     0.0000     1.2880 na         1 9T6      -0.245100
     21 N12         -2.9490    -0.0920     5.5380 nz         1 9T6      -0.677400
     22 N13         -2.8460     0.0140     1.3250 nu         1 9T6      -0.825600
     23 O11         -4.0020     0.1240     3.5930 o          1 9T6      -0.450100
     24 O24         -5.4500    -4.7160    -0.2890 oh         1 9T6      -0.597800
     25 H1          -0.6460     0.0000    -0.8690 ha         1 9T6       0.186000
     26 H2          -0.4560     0.0150     5.2230 h4         1 9T6      -0.002900
     27 H3           1.9650     0.0000    -0.8870 h4         1 9T6       0.198000
     28 H4          -2.6040    -1.8930    -2.0460 hc         1 9T6       0.049450
     29 H5          -2.6310    -0.3580    -1.1660 hc         1 9T6       0.049450
     30 H6          -4.7800     0.5050    -0.2270 hc         1 9T6       0.049450
     31 H7          -6.2740    -0.4190    -0.4400 hc         1 9T6       0.049450
     32 H8          -4.7120    -3.1980    -2.3470 hc         1 9T6       0.056200
     33 H9          -6.2330    -2.5880    -1.6830 hc         1 9T6       0.056200
     34 H10         -2.9290    -4.0430    -0.8150 hc         1 9T6       0.055450
     35 H11         -3.1880    -4.0310     0.9350 hc         1 9T6       0.055450
     36 H12         -6.5990    -2.5710     0.7890 hc         1 9T6       0.055450
     37 H13         -5.3360    -3.1690     1.8740 hc         1 9T6       0.055450
     38 H14         -4.7600    -0.7260    -2.3720 hc         1 9T6       0.063700
     39 H15         -1.7130    -2.1700     0.2450 hc         1 9T6       0.054700
     40 H16         -5.3830    -0.6960     1.8500 hc         1 9T6       0.054700
     41 H17         -3.2260    -1.8630     2.1770 h1         1 9T6       0.021700
     42 H18          2.7740    -0.0000     1.5490 hn         1 9T6       0.326700
     43 H19         -2.4600    -0.9240     5.8040 hn         1 9T6       0.475467
     44 H20         -3.8930    -0.1400     5.8690 hn         1 9T6       0.475467
     45 H21         -3.4480     0.8130     1.3530 hn         1 9T6       0.454800
     46 H22         -5.1560    -5.1400    -1.0780 ho         1 9T6       0.410000
     47 H123        -2.5010     0.7080     5.9390 hn         1 9T6       0.475467
@<TRIPOS>BOND
     1    20     7 1
     2    20     3 1
     3    19     7 ar
     4    19     2 ar
     5     7     4 ar
     6     2     5 ar
     7     3     1 2
     8     4     1 1
     9     4     6 ar
    10    21     8 1
    11     5     6 ar
    12     5     8 1
    13     6    22 1
    14     8    23 2
    15    22    17 1
    16    16    13 1
    17    16    17 1
    18    16    10 1
    19    13    18 1
    20    17    15 1
    21    10    14 1
    22    18    24 1
    23    18    12 1
    24    18    11 1
    25    15    12 1
    26    15     9 1
    27    14    11 1
    28    14     9 1
    29     1    25 1
    30     2    26 1
    31     3    27 1
    32     9    28 1
    33     9    29 1
    34    10    30 1
    35    10    31 1
    36    11    32 1
    37    11    33 1
    38    12    34 1
    39    12    35 1
    40    13    36 1
    41    13    37 1
    42    14    38 1
    43    15    39 1
    44    16    40 1
    45    17    41 1
    46    20    42 1
    47    21    43 1
    48    21    44 1
    49    22    45 1
    50    24    46 1
    51    47    21 1
@<TRIPOS>SUBSTRUCTURE
     1 9T6         1 TEMP              0 ****  ****    0 ROOT
