@<TRIPOS>MOLECULE
9T6
   47    51     1     0     0
SMALL
bcc


@<TRIPOS>ATOM
      1 C9           0.0000     0.0000     0.0000 cc         1 9T6      -0.093200
      2 C3          -0.4560     0.0120     4.1400 ca         1 9T6       0.431200
      3 C8           1.3420     0.0000     0.0000 cd         1 9T6      -0.259100
      4 C5          -0.4220     0.0050     1.4020 ca         1 9T6      -0.250100
      5 C2          -1.6770     0.0140     3.4560 ca         1 9T6      -0.460900
      6 C1          -1.6680     0.0110     2.0470 ca         1 9T6       0.286600
      7 C6           0.7560     0.0030     2.1680 ca         1 9T6       0.254800
      8 C10         -2.9500     0.0190     4.1950 c          1 9T6       0.375700
      9 C19         -3.0550    -1.3540    -1.2220 c3         1 9T6      -0.019900
     10 C23         -5.2040    -0.4910    -0.2820 c3         1 9T6      -0.019900
     11 C22         -5.1640    -2.6590    -1.5240 c3         1 9T6      -0.053400
     12 C15         -3.3810    -3.5030     0.0080 c3         1 9T6      -0.027900
     13 C16         -5.5290    -2.6420     0.9480 c3         1 9T6      -0.027900
     14 C21         -4.5670    -1.2530    -1.4460 c3         1 9T6      -0.032700
     15 C14         -2.7820    -2.0980     0.0870 c3         1 9T6      -0.048700
     16 C17         -4.9310    -1.2350     1.0260 c3         1 9T6      -0.048700
     17 C18         -3.4200    -1.3360     1.2500 c3         1 9T6       0.161500
     18 C20         -4.8910    -3.4030    -0.2150 c3         1 9T6       0.173800
     19 N4           0.6890     0.0060     3.4980 nb         1 9T6      -0.528000
     20 N7           1.8080     0.0000     1.2880 na         1 9T6       0.324900
     21 N12         -2.9490    -0.0920     5.5380 nz         1 9T6       0.201600
     22 N13         -2.8460     0.0140     1.3250 nu         1 9T6      -0.501600
     23 O11         -4.0020     0.1240     3.5930 o          1 9T6      -0.476100
     24 O24         -5.4500    -4.7160    -0.2890 oh         1 9T6      -0.582800
     25 H1          -0.6460     0.0000    -0.8690 ha         1 9T6       0.156000
     26 H2          -0.4560     0.0150     5.2230 h4         1 9T6      -0.049900
     27 H3           1.9650     0.0000    -0.8870 h4         1 9T6       0.164000
     28 H4          -2.6040    -1.8930    -2.0460 hc         1 9T6       0.023450
     29 H5          -2.6310    -0.3580    -1.1660 hc         1 9T6       0.023450
     30 H6          -4.7800     0.5050    -0.2270 hc         1 9T6       0.023450
     31 H7          -6.2740    -0.4190    -0.4400 hc         1 9T6       0.023450
     32 H8          -4.7120    -3.1980    -2.3470 hc         1 9T6       0.029200
     33 H9          -6.2330    -2.5880    -1.6830 hc         1 9T6       0.029200
     34 H10         -2.9290    -4.0430    -0.8150 hc         1 9T6       0.026200
     35 H11         -3.1880    -4.0310     0.9350 hc         1 9T6       0.026200
     36 H12         -6.5990    -2.5710     0.7890 hc         1 9T6       0.026200
     37 H13         -5.3360    -3.1690     1.8740 hc         1 9T6       0.026200
     38 H14         -4.7600    -0.7260    -2.3720 hc         1 9T6       0.035700
     39 H15         -1.7130    -2.1700     0.2450 hc         1 9T6       0.029700
     40 H16         -5.3830    -0.6960     1.8500 hc         1 9T6       0.029700
     41 H17         -3.2260    -1.8630     2.1770 h1         1 9T6       0.003700
     42 H18          2.7740    -0.0000     1.5490 hn         1 9T6       0.134700
     43 H19         -2.4600    -0.9240     5.8040 hn         1 9T6       0.245133
     44 H20         -3.8930    -0.1400     5.8690 hn         1 9T6       0.245133
     45 H21         -3.4480     0.8130     1.3530 hn         1 9T6       0.325800
     46 H22         -5.1560    -5.1400    -1.0780 ho         1 9T6       0.399000
     47 H123        -2.5010     0.7080     5.9390 hn         1 9T6       0.245133
@<TRIPOS>BOND
     1     1     3 2   
     2     1     4 1   
     3     1    25 1   
     4     2     5 ar  
     5     2    19 ar  
     6     2    26 1   
     7     3    20 1   
     8     3    27 1   
     9     4     6 ar  
    10     4     7 ar  
    11     5     6 ar  
    12     5     8 1   
    13     6    22 1   
    14     7    19 ar  
    15     7    20 1   
    16     8    21 1   
    17     8    23 2   
    18     9    14 1   
    19     9    15 1   
    20     9    28 1   
    21     9    29 1   
    22    10    14 1   
    23    10    16 1   
    24    10    30 1   
    25    10    31 1   
    26    11    14 1   
    27    11    18 1   
    28    11    32 1   
    29    11    33 1   
    30    12    15 1   
    31    12    18 1   
    32    12    34 1   
    33    12    35 1   
    34    13    16 1   
    35    13    18 1   
    36    13    36 1   
    37    13    37 1   
    38    14    38 1   
    39    15    17 1   
    40    15    39 1   
    41    16    17 1   
    42    16    40 1   
    43    17    22 1   
    44    17    41 1   
    45    18    24 1   
    46    20    42 1   
    47    21    43 1   
    48    21    44 1   
    49    21    47 1   
    50    22    45 1   
    51    24    46 1   
@<TRIPOS>SUBSTRUCTURE
     1 9T6         1 TEMP              0 ****  ****    0 ROOT
