@<TRIPOS>MOLECULE
9T7
   37    37     1     0     0
SMALL
bcc


@<TRIPOS>ATOM
      1 OAC          0.0000     0.0000     0.0000 o          1 9T7      -0.858300
      2 CAO          1.3420     0.0000     0.0000 c          1 9T7       0.932600
      3 OAE          1.9460    -0.0000    -1.0460 o          1 9T7      -0.858300
      4 CAV          2.0960     0.0000     1.3050 c3         1 9T7       0.251100
      5 FAJ          2.0610     1.2820     1.8640 f          1 9T7      -0.215300
      6 CAS          1.4480    -0.9960     2.2690 c3         1 9T7       0.117600
      7 FAI          2.1150    -0.9580     3.4980 f          1 9T7      -0.233300
      8 CAR          1.5450    -2.4050     1.6770 c3         1 9T7       0.146100
      9 OAD          1.0070    -3.3510     2.6050 oh         1 9T7      -0.564800
     10 OAM          3.4530    -0.3800     1.0720 os         1 9T7      -0.387600
     11 CAU          3.6040    -1.6700     0.4750 c3         1 9T7       0.163100
     12 CAQ          5.0900    -1.9560     0.2470 c3         1 9T7       0.190100
     13 CAP          5.7060    -0.8270    -0.5800 c3         1 9T7       0.161100
     14 CAK          7.1910    -1.1130    -0.8080 c3         1 9T7      -0.043100
     15 OAF          5.0380    -0.7390    -1.8410 oh         1 9T7      -0.565800
     16 OAG          5.7570    -2.0430     1.5080 oh         1 9T7      -0.565800
     17 CAT          3.0160    -2.7320     1.4070 c3         1 9T7      -0.036300
     18 NAL          3.1150    -4.0500     0.7710 ns         1 9T7      -0.182900
     19 CAN          3.1420    -5.1640     1.5290 c          1 9T7       0.559100
     20 OAB          3.0830    -5.0760     2.7370 o          1 9T7      -0.628100
     21 CAA          3.2440    -6.5170     0.8750 c3         1 9T7      -0.071100
     22 H2           0.4060    -0.7350     2.4090 h1         1 9T7       0.065700
     23 H3           0.9900    -2.4460     0.7480 h1         1 9T7       0.046700
     24 H4           0.0740    -3.4120     2.4850 ho         1 9T7       0.379000
     25 H5           3.0770    -1.6910    -0.4720 h1         1 9T7       0.087700
     26 H6           5.1990    -2.8940    -0.2850 h1         1 9T7      -0.001300
     27 H7           5.5970     0.1110    -0.0480 h1         1 9T7       0.041700
     28 H8           7.5960    -0.3900    -1.5060 hc         1 9T7       0.002033
     29 H9           7.7220    -1.0410     0.1340 hc         1 9T7       0.002033
     30 H10          7.3080    -2.1110    -1.2130 hc         1 9T7       0.002033
     31 H11          5.4230    -0.0470    -2.3530 ho         1 9T7       0.386000
     32 H12          6.3960    -2.7350     1.4780 ho         1 9T7       0.373000
     33 H13          3.5630    -2.7340     2.3420 h1         1 9T7       0.093700
     34 H14          3.1150    -4.1240    -0.2270 hn         1 9T7       0.168500
     35 H15          2.4670    -6.6170     0.1270 hc         1 9T7       0.013700
     36 H16          3.1240    -7.2900     1.6250 hc         1 9T7       0.013700
     37 H17          4.2140    -6.6190     0.4040 hc         1 9T7       0.013700
@<TRIPOS>BOND
     1     1     2 1   
     2     2     3 1   
     3     2     4 1   
     4     4     5 1   
     5     4     6 1   
     6     4    10 1   
     7     6     7 1   
     8     6     8 1   
     9     6    22 1   
    10     8     9 1   
    11     8    17 1   
    12     8    23 1   
    13     9    24 1   
    14    10    11 1   
    15    11    12 1   
    16    11    17 1   
    17    11    25 1   
    18    12    13 1   
    19    12    16 1   
    20    12    26 1   
    21    13    14 1   
    22    13    15 1   
    23    13    27 1   
    24    14    28 1   
    25    14    29 1   
    26    14    30 1   
    27    15    31 1   
    28    16    32 1   
    29    17    18 1   
    30    17    33 1   
    31    18    19 1   
    32    18    34 1   
    33    19    20 2   
    34    19    21 1   
    35    21    35 1   
    36    21    36 1   
    37    21    37 1   
@<TRIPOS>SUBSTRUCTURE
     1 9T7         1 TEMP              0 ****  ****    0 ROOT
