@<TRIPOS>MOLECULE
9T8
   33    32     1     0     0
SMALL
bcc


@<TRIPOS>ATOM
      1 C01          0.0000     0.0000     0.0000 c3         1 9T8       0.008600
      2 N02          1.6760     2.3280    -4.3000 ns         1 9T8      -0.179900
      3 C03          1.9590     1.1990    -0.6930 c3         1 9T8      -0.018200
      4 C05          2.0650     2.3870    -2.8880 c3         1 9T8       0.065000
      5 C06          2.0200     3.3290    -5.1350 c          1 9T8       0.579100
      6 C07          1.6210     3.2690    -6.5870 c3         1 9T8      -0.108400
      7 C04          1.5540     1.1380    -2.1680 c3         1 9T8      -0.057400
      8 N01          1.4690     0.0000     0.0000 nx         1 9T8       0.036600
      9 C02          1.9600     0.0000     1.3850 c3         1 9T8       0.008600
     10 N03          1.7430     4.4590    -8.7230 nz         1 9T8       0.086400
     11 C08          2.1320     4.5170    -7.3080 c3         1 9T8      -0.034200
     12 O01          2.6500     4.2780    -4.7190 o          1 9T8      -0.609100
     13 H006        -0.3610     1.0170     0.0980 hx         1 9T8       0.077533
     14 H004        -0.3610    -0.5930     0.8310 hx         1 9T8       0.077533
     15 H005        -0.3610    -0.4240    -0.9290 hx         1 9T8       0.077533
     16 HN02         1.1790     1.5330    -4.6500 hn         1 9T8       0.180500
     17 H031         3.0390     1.2450    -0.6160 hx         1 9T8       0.087200
     18 H032         1.5280     2.0820    -0.2360 hx         1 9T8       0.087200
     19 H052         3.1440     2.4320    -2.8120 h1         1 9T8       0.044700
     20 H051         1.6330     3.2690    -2.4310 h1         1 9T8       0.044700
     21 H072         0.5410     3.2240    -6.6640 hc         1 9T8       0.046700
     22 H071         2.0520     2.3860    -7.0440 hc         1 9T8       0.046700
     23 H042         1.9860     0.2560    -2.6240 hc         1 9T8       0.037700
     24 H041         0.4750     1.0930    -2.2440 hc         1 9T8       0.037700
     25 HN01         1.8030    -0.8170    -0.4720 hn         1 9T8       0.258800
     26 H001         1.5950     0.8820     1.8970 hx         1 9T8       0.077533
     27 H002         1.6030    -0.8870     1.8940 hx         1 9T8       0.077533
     28 H003         3.0430     0.0050     1.3840 hx         1 9T8       0.077533
     29 H1           0.7450     4.4180    -8.7940 hn         1 9T8       0.226800
     30 H2           2.1400     3.6440    -9.1460 hn         1 9T8       0.226800
     31 HN03         2.0770     5.2760    -9.1950 hn         1 9T8       0.226800
     32 H081         3.2110     4.5610    -7.2320 hx         1 9T8       0.102700
     33 H082         1.7010     5.4000    -6.8510 hx         1 9T8       0.102700
@<TRIPOS>BOND
     1     1     8 1   
     2     1    13 1   
     3     1    14 1   
     4     1    15 1   
     5     2     4 1   
     6     2     5 1   
     7     2    16 1   
     8     3     7 1   
     9     3     8 1   
    10     3    17 1   
    11     3    18 1   
    12     4     7 1   
    13     4    19 1   
    14     4    20 1   
    15     5     6 1   
    16     5    12 2   
    17     6    11 1   
    18     6    21 1   
    19     6    22 1   
    20     7    23 1   
    21     7    24 1   
    22     8     9 1   
    23     8    25 1   
    24     9    26 1   
    25     9    27 1   
    26     9    28 1   
    27    10    11 1   
    28    10    29 1   
    29    10    30 1   
    30    10    31 1   
    31    11    32 1   
    32    11    33 1   
@<TRIPOS>SUBSTRUCTURE
     1 9T8         1 TEMP              0 ****  ****    0 ROOT
