@<TRIPOS>MOLECULE
molecule
   33    32     1     0     0
SMALL
bcc


@<TRIPOS>ATOM
      1 C01          0.0000     0.0000     0.0000 c3         1 9T8       0.087100
      2 N02          1.6760     2.3280    -4.3000 ns         1 9T8      -0.578900
      3 C03          1.9590     1.1990    -0.6930 c3         1 9T8       0.103800
      4 C05          2.0650     2.3870    -2.8880 c3         1 9T8       0.125000
      5 C06          2.0200     3.3290    -5.1350 c          1 9T8       0.673100
      6 C07          1.6210     3.2690    -6.5870 c3         1 9T8      -0.194400
      7 C04          1.5540     1.1380    -2.1680 c3         1 9T8      -0.133400
      8 N01          1.4690     0.0000     0.0000 nx         1 9T8      -0.656400
      9 C02          1.9600     0.0000     1.3850 c3         1 9T8       0.087100
     10 N03          1.7430     4.4590    -8.7230 nz         1 9T8      -0.812600
     11 C08          2.1320     4.5170    -7.3080 c3         1 9T8       0.111800
     12 O01          2.6500     4.2780    -4.7190 o          1 9T8      -0.572100
     13 H006        -0.3610     1.0170     0.0980 hx         1 9T8       0.106533
     14 H004        -0.3610    -0.5930     0.8310 hx         1 9T8       0.106533
     15 H005        -0.3610    -0.4240    -0.9290 hx         1 9T8       0.106533
     16 HN02         1.1790     1.5330    -4.6500 hn         1 9T8       0.325500
     17 H031         3.0390     1.2450    -0.6160 hx         1 9T8       0.112200
     18 H032         1.5280     2.0820    -0.2360 hx         1 9T8       0.112200
     19 H052         3.1440     2.4320    -2.8120 h1         1 9T8       0.076200
     20 H051         1.6330     3.2690    -2.4310 h1         1 9T8       0.076200
     21 H072         0.5410     3.2240    -6.6640 hc         1 9T8       0.085200
     22 H071         2.0520     2.3860    -7.0440 hc         1 9T8       0.085200
     23 H042         1.9860     0.2560    -2.6240 hc         1 9T8       0.069700
     24 H041         0.4750     1.0930    -2.2440 hc         1 9T8       0.069700
     25 HN01         1.8030    -0.8170    -0.4720 hn         1 9T8       0.454800
     26 H001         1.5950     0.8820     1.8970 hx         1 9T8       0.106533
     27 H002         1.6030    -0.8870     1.8940 hx         1 9T8       0.106533
     28 H003         3.0430     0.0050     1.3840 hx         1 9T8       0.106533
     29 H1           0.7450     4.4180    -8.7940 hn         1 9T8       0.462467
     30 H2           2.1400     3.6440    -9.1460 hn         1 9T8       0.462467
     31 HN03         2.0770     5.2760    -9.1950 hn         1 9T8       0.462467
     32 H081         3.2110     4.5610    -7.2320 hx         1 9T8       0.132700
     33 H082         1.7010     5.4000    -6.8510 hx         1 9T8       0.132700
@<TRIPOS>BOND
     1     1     8 1
     2     8     3 1
     3     8     9 1
     4     3     7 1
     5     7     4 1
     6     4     2 1
     7     2     5 1
     8     5    12 2
     9     5     6 1
    10     6    11 1
    11    11    10 1
    12     1    13 1
    13     1    14 1
    14     1    15 1
    15     2    16 1
    16     3    17 1
    17     3    18 1
    18     4    19 1
    19     4    20 1
    20     6    21 1
    21     6    22 1
    22     7    23 1
    23     7    24 1
    24     8    25 1
    25     9    26 1
    26     9    27 1
    27     9    28 1
    28    10    29 1
    29    10    30 1
    30    10    31 1
    31    11    32 1
    32    11    33 1
@<TRIPOS>SUBSTRUCTURE
     1 9T8         1 TEMP              0 ****  ****    0 ROOT
