@<TRIPOS>MOLECULE
9T9
   68    74     1     0     0
SMALL
bcc


@<TRIPOS>ATOM
      1 C1           0.0000     0.0000     0.0000 ca         1 9T9      -0.281000
      2 C2           1.3930     0.0000     0.0000 ca         1 9T9       0.143600
      3 C3           2.0980     0.0000     1.1940 ca         1 9T9      -0.267000
      4 C4           1.4240     0.0000     2.4100 ca         1 9T9       0.256100
      5 C5           0.0210    -0.0050     2.4050 ca         1 9T9      -0.335600
      6 C6          -0.6850    -0.0020     1.1950 ca         1 9T9       0.254900
      7 O7           2.1720     0.0100     3.5450 os         1 9T9      -0.162200
      8 C8           1.5740    -0.2300     4.7350 cc         1 9T9       0.084100
      9 C9           0.1020    -0.2510     4.8670 cc         1 9T9      -0.303600
     10 C10         -0.7360    -0.0180     3.6820 c          1 9T9       0.701300
     11 C11          2.0620    -0.4800     5.9560 cd         1 9T9      -0.324600
     12 N12          1.0250    -0.6490     6.8370 na         1 9T9       0.437900
     13 C13         -0.1740    -0.5120     6.1880 cd         1 9T9      -0.234800
     14 O14         -1.9420     0.1500     3.7420 o          1 9T9      -0.553100
     15 C15         -1.5070    -0.6240     6.7930 cd         1 9T9       0.530900
     16 C16          3.5250    -0.5620     6.3070 c3         1 9T9       0.143200
     17 C17          4.0540     0.8220     6.5860 ca         1 9T9      -0.099300
     18 C18          4.0110     1.3320     7.8700 ca         1 9T9      -0.088000
     19 C19          4.4960     2.6030     8.1290 ca         1 9T9       0.060100
     20 C20          5.0270     3.3650     7.0910 ca         1 9T9       0.057100
     21 C21          5.0680     2.8480     5.8070 ca         1 9T9      -0.084000
     22 C22          4.5860     1.5760     5.5570 ca         1 9T9      -0.085000
     23 O23          4.5680     3.3270     9.2830 os         1 9T9      -0.314900
     24 C24          4.7730     4.6910     8.8700 c3         1 9T9       0.432200
     25 O25          5.4290     4.5680     7.5960 os         1 9T9      -0.314900
     26 S26         -3.0370    -0.4500     5.9360 ss         1 9T9      -0.216300
     27 C27         -3.9070    -0.7380     7.4410 cd         1 9T9      -0.135400
     28 C28         -3.0080    -0.9320     8.4150 cc         1 9T9       0.346200
     29 N29         -1.7500    -0.8720     8.0520 nc         1 9T9      -0.597000
     30 F30         -2.0360     0.0030     1.2000 f          1 9T9      -0.112900
     31 N31          2.0830    -0.0000    -1.2090 nu         1 9T9      -0.408600
     32 C32          1.3440    -0.0000    -2.4740 c3         1 9T9       0.147800
     33 C33          2.3320    -0.0000    -3.6420 c3         1 9T9       0.144800
     34 N34          1.5910    -0.0010    -4.9100 n3         1 9T9      -0.527600
     35 C35          2.4930    -0.2400    -6.0460 c3         1 9T9       0.104300
     36 C36          1.6740    -0.3130    -7.3370 c3         1 9T9       0.158300
     37 N37          0.9290     0.9420    -7.5130 n3         1 9T9      -0.541600
     38 C38          0.0280     1.1800    -6.3770 c3         1 9T9       0.158300
     39 C39          0.8470     1.2530    -5.0860 c3         1 9T9       0.104300
     40 C40          1.8450     2.0750    -7.7050 c3         1 9T9       0.168100
     41 H1          -0.5430    -0.0000    -0.9370 ha         1 9T9       0.138000
     42 H2           3.1810    -0.0000     1.1790 ha         1 9T9       0.126000
     43 H3           1.1290    -0.8450     7.8120 hn         1 9T9       0.128700
     44 H4           4.0720    -0.9980     5.4800 hc         1 9T9       0.024200
     45 H5           3.6510    -1.1800     7.1880 hc         1 9T9       0.024200
     46 H6           3.6270     0.7240     8.6810 ha         1 9T9       0.110000
     47 H7           5.4850     3.4370     4.9990 ha         1 9T9       0.113000
     48 H8           4.6480     1.1610     4.5590 ha         1 9T9       0.116000
     49 H9           3.8170     5.1850     8.7440 h2         1 9T9       0.014700
     50 H10         -4.9840    -0.7540     7.5590 h4         1 9T9       0.155000
     51 H11         -3.3030    -1.1320     9.4380 h4         1 9T9      -0.004900
     52 H12          3.0840    -0.0150    -1.2140 hn         1 9T9       0.294800
     53 H13          0.7210     0.8840    -2.5280 h1         1 9T9       0.029700
     54 H14          0.7210    -0.8850    -2.5280 h1         1 9T9       0.029700
     55 H15          2.9550     0.8840    -3.5880 h1         1 9T9       0.012700
     56 H16          2.9560    -0.8850    -3.5870 h1         1 9T9       0.012700
     57 H18          3.0180    -1.1770    -5.8990 h1         1 9T9       0.019200
     58 H19          3.2060     0.5720    -6.1170 h1         1 9T9       0.019200
     59 H20          0.9760    -1.1400    -7.2750 h1         1 9T9       0.030950
     60 H21          2.3400    -0.4570    -8.1790 h1         1 9T9       0.030950
     61 H23         -0.6850     0.3680    -6.3060 h1         1 9T9       0.030950
     62 H24         -0.4960     2.1170    -6.5230 h1         1 9T9       0.030950
     63 H25          0.1800     1.3970    -4.2440 h1         1 9T9       0.019200
     64 H26          1.5440     2.0800    -5.1470 h1         1 9T9       0.019200
     65 H27          2.4610     2.1960    -6.8210 h1         1 9T9       0.004700
     66 H28          2.4790     1.8860    -8.5630 h1         1 9T9       0.004700
     67 H29          1.2720     2.9790    -7.8720 h1         1 9T9       0.004700
     68 H30          5.4260     5.1950     9.5720 h2         1 9T9       0.014700
@<TRIPOS>BOND
     1     1     2 ar  
     2     1     6 ar  
     3     1    41 1   
     4     2     3 ar  
     5     2    31 1   
     6     3     4 ar  
     7     3    42 1   
     8     4     5 ar  
     9     4     7 1   
    10     5     6 ar  
    11     5    10 1   
    12     6    30 1   
    13     7     8 1   
    14     8     9 1   
    15     8    11 2   
    16     9    10 1   
    17     9    13 2   
    18    10    14 2   
    19    11    12 1   
    20    11    16 1   
    21    12    13 1   
    22    12    43 1   
    23    13    15 1   
    24    15    26 1   
    25    15    29 2   
    26    16    17 1   
    27    16    44 1   
    28    16    45 1   
    29    17    18 ar  
    30    17    22 ar  
    31    18    19 ar  
    32    18    46 1   
    33    19    20 ar  
    34    19    23 1   
    35    20    21 ar  
    36    20    25 1   
    37    21    22 ar  
    38    21    47 1   
    39    22    48 1   
    40    23    24 1   
    41    24    25 1   
    42    24    49 1   
    43    24    68 1   
    44    26    27 1   
    45    27    28 2   
    46    27    50 1   
    47    28    29 1   
    48    28    51 1   
    49    31    32 1   
    50    31    52 1   
    51    32    33 1   
    52    32    53 1   
    53    32    54 1   
    54    33    34 1   
    55    33    55 1   
    56    33    56 1   
    57    34    35 1   
    58    34    39 1   
    59    35    36 1   
    60    35    57 1   
    61    35    58 1   
    62    36    37 1   
    63    36    59 1   
    64    36    60 1   
    65    37    38 1   
    66    37    40 1   
    67    38    39 1   
    68    38    61 1   
    69    38    62 1   
    70    39    63 1   
    71    39    64 1   
    72    40    65 1   
    73    40    66 1   
    74    40    67 1   
@<TRIPOS>SUBSTRUCTURE
     1 9T9         1 TEMP              0 ****  ****    0 ROOT
