@<TRIPOS>MOLECULE
molecule
   68    74     1     0     0
SMALL
bcc


@<TRIPOS>ATOM
      1 C1           0.0000     0.0000     0.0000 ca         1 9T9      -0.294000
      2 C2           1.3930     0.0000     0.0000 ca         1 9T9       0.280600
      3 C3           2.0980     0.0000     1.1940 ca         1 9T9      -0.275000
      4 C4           1.4240     0.0000     2.4100 ca         1 9T9       0.249100
      5 C5           0.0210    -0.0050     2.4050 ca         1 9T9      -0.323600
      6 C6          -0.6850    -0.0020     1.1950 ca         1 9T9       0.262900
      7 O7           2.1720     0.0100     3.5450 os         1 9T9      -0.196200
      8 C8           1.5740    -0.2300     4.7350 cc         1 9T9       0.065100
      9 C9           0.1020    -0.2510     4.8670 cc         1 9T9      -0.293600
     10 C10         -0.7360    -0.0180     3.6820 c          1 9T9       0.639300
     11 C11          2.0620    -0.4800     5.9560 cd         1 9T9      -0.102600
     12 N12          1.0250    -0.6490     6.8370 na         1 9T9      -0.133100
     13 C13         -0.1740    -0.5120     6.1880 cd         1 9T9      -0.027800
     14 O14         -1.9420     0.1500     3.7420 o          1 9T9      -0.542100
     15 C15         -1.5070    -0.6240     6.7930 cd         1 9T9       0.484900
     16 C16          3.5250    -0.5620     6.3070 c3         1 9T9       0.048200
     17 C17          4.0540     0.8220     6.5860 ca         1 9T9      -0.087300
     18 C18          4.0110     1.3320     7.8700 ca         1 9T9      -0.109000
     19 C19          4.4960     2.6030     8.1290 ca         1 9T9       0.051100
     20 C20          5.0270     3.3650     7.0910 ca         1 9T9       0.051100
     21 C21          5.0680     2.8480     5.8070 ca         1 9T9      -0.111000
     22 C22          4.5860     1.5760     5.5570 ca         1 9T9      -0.109000
     23 O23          4.5680     3.3270     9.2830 os         1 9T9      -0.326900
     24 C24          4.7730     4.6910     8.8700 c3         1 9T9       0.332200
     25 O25          5.4290     4.5680     7.5960 os         1 9T9      -0.327900
     26 S26         -3.0370    -0.4500     5.9360 ss         1 9T9      -0.051300
     27 C27         -3.9070    -0.7380     7.4410 cd         1 9T9      -0.227400
     28 C28         -3.0080    -0.9320     8.4150 cc         1 9T9       0.357200
     29 N29         -1.7500    -0.8720     8.0520 nc         1 9T9      -0.694000
     30 F30         -2.0360     0.0030     1.2000 f          1 9T9      -0.109900
     31 N31          2.0830    -0.0000    -1.2090 nu         1 9T9      -0.812600
     32 C32          1.3440    -0.0000    -2.4740 c3         1 9T9       0.229800
     33 C33          2.3320    -0.0000    -3.6420 c3         1 9T9       0.146800
     34 N34          1.5910    -0.0010    -4.9100 n3         1 9T9      -0.721600
     35 C35          2.4930    -0.2400    -6.0460 c3         1 9T9       0.117800
     36 C36          1.6740    -0.3130    -7.3370 c3         1 9T9       0.163800
     37 N37          0.9290     0.9420    -7.5130 n3         1 9T9      -0.720600
     38 C38          0.0280     1.1800    -6.3770 c3         1 9T9       0.163800
     39 C39          0.8470     1.2530    -5.0860 c3         1 9T9       0.117800
     40 C40          1.8450     2.0750    -7.7050 c3         1 9T9       0.142100
     41 H1          -0.5430    -0.0000    -0.9370 ha         1 9T9       0.154000
     42 H2           3.1810    -0.0000     1.1790 ha         1 9T9       0.147000
     43 H3           1.1290    -0.8450     7.8120 hn         1 9T9       0.323700
     44 H4           4.0720    -0.9980     5.4800 hc         1 9T9       0.065200
     45 H5           3.6510    -1.1800     7.1880 hc         1 9T9       0.065200
     46 H6           3.6270     0.7240     8.6810 ha         1 9T9       0.139000
     47 H7           5.4850     3.4370     4.9990 ha         1 9T9       0.145000
     48 H8           4.6480     1.1610     4.5590 ha         1 9T9       0.147000
     49 H9           3.8170     5.1850     8.7440 h2         1 9T9       0.071700
     50 H10         -4.9840    -0.7540     7.5590 h4         1 9T9       0.178000
     51 H11         -3.3030    -1.1320     9.4380 h4         1 9T9       0.037100
     52 H12          3.0840    -0.0150    -1.2140 hn         1 9T9       0.442800
     53 H13          0.7210     0.8840    -2.5280 h1         1 9T9       0.053700
     54 H14          0.7210    -0.8850    -2.5280 h1         1 9T9       0.053700
     55 H15          2.9550     0.8840    -3.5880 h1         1 9T9       0.039200
     56 H16          2.9560    -0.8850    -3.5870 h1         1 9T9       0.039200
     57 H18          3.0180    -1.1770    -5.8990 h1         1 9T9       0.039950
     58 H19          3.2060     0.5720    -6.1170 h1         1 9T9       0.039950
     59 H20          0.9760    -1.1400    -7.2750 h1         1 9T9       0.064200
     60 H21          2.3400    -0.4570    -8.1790 h1         1 9T9       0.064200
     61 H23         -0.6850     0.3680    -6.3060 h1         1 9T9       0.064200
     62 H24         -0.4960     2.1170    -6.5230 h1         1 9T9       0.064200
     63 H25          0.1800     1.3970    -4.2440 h1         1 9T9       0.039950
     64 H26          1.5440     2.0800    -5.1470 h1         1 9T9       0.039950
     65 H27          2.4610     2.1960    -6.8210 h1         1 9T9       0.033367
     66 H28          2.4790     1.8860    -8.5630 h1         1 9T9       0.033367
     67 H29          1.2720     2.9790    -7.8720 h1         1 9T9       0.033367
     68 H30          5.4260     5.1950     9.5720 h2         1 9T9       0.071700
@<TRIPOS>BOND
     1    25    24 1
     2    25    20 1
     3    24    23 1
     4    20    21 ar
     5    20    19 ar
     6    21    22 ar
     7    19    23 1
     8    19    18 ar
     9    22    17 ar
    10    18    17 ar
    11    17    16 1
    12    16    11 1
    13    31    32 1
    14    31     2 1
    15    32    33 1
    16     3     2 ar
    17     3     4 ar
    18    33    34 1
    19     7     4 1
    20     7     8 1
    21     2     1 ar
    22    11     8 2
    23    11    12 1
    24     4     5 ar
    25    40    37 1
    26    36    37 1
    27    36    35 1
    28     8     9 1
    29    38    37 1
    30    38    39 1
    31    34    35 1
    32    34    39 1
    33     1     6 ar
    34    12    13 1
    35     5     6 ar
    36     5    10 1
    37     9    13 2
    38     9    10 1
    39     6    30 1
    40    13    15 1
    41    10    14 2
    42    15    29 2
    43    15    26 1
    44    29    28 1
    45    26    27 1
    46    28    27 2
    47     1    41 1
    48     3    42 1
    49    12    43 1
    50    16    44 1
    51    16    45 1
    52    18    46 1
    53    21    47 1
    54    22    48 1
    55    24    49 1
    56    27    50 1
    57    28    51 1
    58    31    52 1
    59    32    53 1
    60    32    54 1
    61    33    55 1
    62    33    56 1
    63    35    57 1
    64    35    58 1
    65    36    59 1
    66    36    60 1
    67    38    61 1
    68    38    62 1
    69    39    63 1
    70    39    64 1
    71    40    65 1
    72    40    66 1
    73    40    67 1
    74    24    68 1
@<TRIPOS>SUBSTRUCTURE
     1 9T9         1 TEMP              0 ****  ****    0 ROOT
