@<TRIPOS>MOLECULE
molecule
   24    26     1     0     0
SMALL
bcc


@<TRIPOS>ATOM
      1 C1           0.0000     0.0000     0.0000 ca         1 9TA      -0.081750
      2 C2           1.3850     0.0000     0.0000 ca         1 9TA      -0.116750
      3 C3           2.0860     0.0000     1.1910 ca         1 9TA      -0.116750
      4 C4           1.4140     0.0010     2.4020 ca         1 9TA      -0.081750
      5 C5          -2.8200     0.6030     4.8930 ca         1 9TA      -0.081750
      6 C6          -4.1750     0.8880     4.8750 ca         1 9TA      -0.116750
      7 C7          -4.8770     0.8850     3.6830 ca         1 9TA      -0.116750
      8 C8          -4.2340     0.6070     2.4890 ca         1 9TA      -0.081750
      9 C9          -2.1700     0.0060     1.2270 c          1 9TA       0.587800
     10 O9          -2.7990    -0.2480     0.2190 o          1 9TA      -0.514100
     11 C10         -0.7130     0.0040     3.7020 c          1 9TA       0.587800
     12 O10         -0.1360    -0.2440     4.7420 o          1 9TA      -0.514100
     13 C11         -0.6900     0.0060     1.2060 ca         1 9TA      -0.132100
     14 C12          0.0230     0.0020     2.4200 ca         1 9TA      -0.132100
     15 C13         -2.8740     0.3200     2.4900 ca         1 9TA      -0.132100
     16 C14         -2.1600     0.3120     3.7040 ca         1 9TA      -0.132100
     17 H1          -0.5430     0.0000    -0.9370 ha         1 9TA       0.155250
     18 H2           1.9230    -0.0010    -0.9410 ha         1 9TA       0.138750
     19 H3           3.1700    -0.0000     1.1770 ha         1 9TA       0.138750
     20 H4           1.9690     0.0010     3.3320 ha         1 9TA       0.155250
     21 H5          -2.2760     0.6080     5.8290 ha         1 9TA       0.155250
     22 H6          -4.6910     1.1080     5.8020 ha         1 9TA       0.138750
     23 H7          -5.9370     1.1100     3.6840 ha         1 9TA       0.138750
     24 H8          -4.7900     0.6060     1.5590 ha         1 9TA       0.155250
@<TRIPOS>BOND
     1    13     1 ar
     2     1     2 ar
     3     1    17 1
     4     3     2 ar
     5     2    18 1
     6     4     3 ar
     7     3    19 1
     8    14     4 ar
     9     4    20 1
    10     6     5 ar
    11     5    16 ar
    12     5    21 1
    13     6     7 ar
    14     6    22 1
    15     7     8 ar
    16     7    23 1
    17     8    15 ar
    18     8    24 1
    19    15     9 1
    20     9    10 2
    21     9    13 1
    22    16    11 1
    23    12    11 2
    24    11    14 1
    25    14    13 ar
    26    16    15 ar
@<TRIPOS>SUBSTRUCTURE
     1 9TA         1 TEMP              0 ****  ****    0 ROOT
