@<TRIPOS>MOLECULE
9TA
   24    26     1     0     0
SMALL
bcc


@<TRIPOS>ATOM
      1 C1          0.0010   -0.0260   -0.0000 ca        1 9TA     -0.087000
      2 C2          1.3880   -0.1730   -0.0060 ca        1 9TA     -0.117000
      3 C3          2.0940   -0.1730    1.1950 ca        1 9TA     -0.117000
      4 C4          1.4130   -0.0280    2.4040 ca        1 9TA     -0.087000
      5 C5         -2.8270    0.5750    4.8960 ca        1 9TA     -0.087000
      6 C6         -4.2140    0.7240    4.9020 ca        1 9TA     -0.117000
      7 C7         -4.9200    0.7240    3.7010 ca        1 9TA     -0.117000
      8 C8         -4.2400    0.5760    2.4920 ca        1 9TA     -0.087000
      9 C9         -2.1600    0.2730    1.1770 c         1 9TA      0.585300
     10 O9         -2.7880    0.2710    0.1090 o         1 9TA     -0.525100
     11 C10        -0.6670    0.2710    3.7190 c         1 9TA      0.585300
     12 O10        -0.0390    0.2680    4.7870 o         1 9TA     -0.525100
     13 C11        -0.6900    0.1200    1.2080 ca        1 9TA     -0.128600
     14 C12         0.0220    0.1190    2.4190 ca        1 9TA     -0.128600
     15 C13        -2.8480    0.4270    2.4770 ca        1 9TA     -0.128600
     16 C14        -2.1360    0.4260    3.6880 ca        1 9TA     -0.128600
     17 H1         -0.5670   -0.0250   -0.9460 ha        1 9TA      0.160000
     18 H2          1.9220   -0.2870   -0.9620 ha        1 9TA      0.142000
     19 H3          3.1890   -0.2880    1.1940 ha        1 9TA      0.142000
     20 H4          1.9630   -0.0280    3.3610 ha        1 9TA      0.160000
     21 H5         -2.2590    0.5730    5.8410 ha        1 9TA      0.160000
     22 H6         -4.7480    0.8400    5.8570 ha        1 9TA      0.142000
     23 H7         -6.0140    0.8420    3.7020 ha        1 9TA      0.142000
     24 H8         -4.7890    0.5760    1.5350 ha        1 9TA      0.160000
@<TRIPOS>BOND
     1    1    2 ar  
     2    1   13 ar  
     3    1   17 1   
     4    2    3 ar  
     5    2   18 1   
     6    3    4 ar  
     7    3   19 1   
     8    4   14 ar  
     9    4   20 1   
    10    5    6 ar  
    11    5   16 ar  
    12    5   21 1   
    13    6    7 ar  
    14    6   22 1   
    15    7    8 ar  
    16    7   23 1   
    17    8   15 ar  
    18    8   24 1   
    19    9   10 2   
    20    9   13 1   
    21    9   15 1   
    22   11   12 2   
    23   11   14 1   
    24   11   16 1   
    25   13   14 ar  
    26   15   16 ar  
@<TRIPOS>SUBSTRUCTURE
     1 9TA         1 TEMP              0 ****  ****    0 ROOT
