@<TRIPOS>MOLECULE
9TB
   52    52     1     0     0
SMALL
bcc


@<TRIPOS>ATOM
      1 OAA          0.0000     0.0000     0.0000 o          1 9TB      -0.936300
      2 CAW          1.3420     0.0000     0.0000 c          1 9TB       0.986600
      3 OAF          1.9460     0.0000     1.0460 o          1 9TB      -0.936300
      4 CAP          2.0950     0.0010    -1.3060 c3         1 9TB      -0.142400
      5 CAS          3.5990     0.0010    -1.0270 c3         1 9TB      -0.012400
      6 CBE          4.3640     0.0020    -2.3520 c3         1 9TB      -0.084300
      7 CAY          5.8400     0.1260    -2.0790 c          1 9TB       0.988600
      8 OAH          6.3150     1.2010    -1.4310 o          1 9TB      -0.926800
      9 OAC          6.5980    -0.7420    -2.4460 o          1 9TB      -0.926800
     10 NAV          4.1030    -1.2500    -3.0680 ns         1 9TB      -0.165900
     11 CBA          4.2220    -1.2970    -4.4090 c          1 9TB       0.597100
     12 OAE          4.5470    -0.3010    -5.0250 o          1 9TB      -0.730100
     13 N            3.9820    -2.4490    -5.0670 ns         1 9TB      -0.208900
     14 CA           4.1120    -2.5010    -6.5250 c3         1 9TB      -0.068300
     15 C            2.8270    -2.0370    -7.1610 c          1 9TB       0.975600
     16 OXT          2.7150    -2.0000    -8.4970 o          1 9TB      -0.907800
     17 O            1.8970    -1.6990    -6.4670 o          1 9TB      -0.907800
     18 CB           4.4080    -3.9370    -6.9610 c3         1 9TB      -0.025400
     19 CAN          5.7730    -4.3640    -6.4160 c3         1 9TB      -0.032400
     20 CAO          6.0690    -5.8010    -6.8510 c3         1 9TB      -0.092400
     21 CAZ          7.4130    -6.2220    -6.3170 c          1 9TB       0.564100
     22 OAD          8.0700    -5.4480    -5.6520 o          1 9TB      -0.607100
     23 NAT          7.8850    -7.4570    -6.5760 ns         1 9TB      -0.241900
     24 CAQ          9.1920    -7.8650    -6.0560 c3         1 9TB       0.112300
     25 CBC          9.4840    -9.2800    -6.4840 ca         1 9TB      -0.111300
     26 CAL          9.0870   -10.3390    -5.6880 ca         1 9TB      -0.058500
     27 CAJ          9.3540   -11.6370    -6.0800 ca         1 9TB      -0.141500
     28 CBB         10.0180   -11.8780    -7.2710 ca         1 9TB       0.086900
     29 FAI         10.2780   -13.1450    -7.6550 f          1 9TB      -0.138900
     30 CAK         10.4130   -10.8160    -8.0680 ca         1 9TB      -0.141500
     31 CAM         10.1420    -9.5190    -7.6760 ca         1 9TB      -0.058500
     32 H2           1.8330    -0.8840    -1.8740 hc         1 9TB       0.010700
     33 H3           1.8330     0.8850    -1.8740 hc         1 9TB       0.010700
     34 H4           3.8600     0.8860    -0.4580 hc         1 9TB       0.025200
     35 H5           3.8610    -0.8830    -0.4590 hc         1 9TB       0.025200
     36 H6           4.0370     0.8390    -2.9570 h1         1 9TB       0.053700
     37 H8           3.8740    -2.0800    -2.5570 hn         1 9TB       0.142500
     38 H9           3.6740    -3.2570    -4.5630 hn         1 9TB       0.139500
     39 H10          4.9230    -1.8540    -6.8380 h1         1 9TB       0.057700
     40 H12          4.4170    -3.9920    -8.0420 hc         1 9TB       0.010700
     41 H13          3.6420    -4.5980    -6.5720 hc         1 9TB       0.010700
     42 H14          5.7630    -4.3090    -5.3350 hc         1 9TB       0.040200
     43 H15          6.5390    -3.7040    -6.8050 hc         1 9TB       0.040200
     44 H16          5.3030    -6.4610    -6.4620 hc         1 9TB       0.017700
     45 H17          6.0770    -5.8560    -7.9330 hc         1 9TB       0.017700
     46 H18          7.3540    -8.0860    -7.1450 hn         1 9TB       0.170500
     47 H19          9.1830    -7.8100    -4.9740 h1         1 9TB       0.029200
     48 H20          9.9580    -7.2050    -6.4440 h1         1 9TB       0.029200
     49 H21          8.5680   -10.1510    -4.7560 ha         1 9TB       0.117500
     50 H22          9.0430   -12.4660    -5.4560 ha         1 9TB       0.112000
     51 H23         10.9310   -11.0030    -9.0010 ha         1 9TB       0.112000
     52 H24         10.4520    -8.6890    -8.2990 ha         1 9TB       0.117500
@<TRIPOS>BOND
     1     1     2 1   
     2     2     3 1   
     3     2     4 1   
     4     4     5 1   
     5     4    32 1   
     6     4    33 1   
     7     5     6 1   
     8     5    34 1   
     9     5    35 1   
    10     6     7 1   
    11     6    10 1   
    12     6    36 1   
    13     7     8 1   
    14     7     9 1   
    15    10    11 1   
    16    10    37 1   
    17    11    12 2   
    18    11    13 1   
    19    13    14 1   
    20    13    38 1   
    21    14    15 1   
    22    14    18 1   
    23    14    39 1   
    24    15    16 1   
    25    15    17 1   
    26    18    19 1   
    27    18    40 1   
    28    18    41 1   
    29    19    20 1   
    30    19    42 1   
    31    19    43 1   
    32    20    21 1   
    33    20    44 1   
    34    20    45 1   
    35    21    22 2   
    36    21    23 1   
    37    23    24 1   
    38    23    46 1   
    39    24    25 1   
    40    24    47 1   
    41    24    48 1   
    42    25    26 ar  
    43    25    31 ar  
    44    26    27 ar  
    45    26    49 1   
    46    27    28 ar  
    47    27    50 1   
    48    28    29 1   
    49    28    30 ar  
    50    30    31 ar  
    51    30    51 1   
    52    31    52 1   
@<TRIPOS>SUBSTRUCTURE
     1 9TB         1 TEMP              0 ****  ****    0 ROOT
