@<TRIPOS>MOLECULE
molecule
   42    45     1     0     0
SMALL
bcc


@<TRIPOS>ATOM
      1 C1           0.0000     0.0000     0.0000 ca         1 9TE      -0.166000
      2 C2           1.3860     0.0000     0.0000 ca         1 9TE       0.137100
      3 C3           2.0780     0.0000     1.2030 ca         1 9TE      -0.194000
      4 C5           0.0050     0.0010     2.4020 ca         1 9TE      -0.227000
      5 C7          -2.6960     0.0030     2.4790 c3         1 9TE       0.128700
      6 C8           2.7840    -1.1110    -1.4970 ca         1 9TE       0.093100
      7 C9           3.5950    -1.1170    -2.6210 ca         1 9TE      -0.025000
      8 C10          4.3310    -2.2410    -2.9380 ca         1 9TE      -0.296500
      9 C12          3.4550    -3.3620    -1.0130 ca         1 9TE      -0.159000
     10 C13          2.7130    -2.2450    -0.6990 ca         1 9TE      -0.130000
     11 C14          5.3860    -4.8130    -3.7560 c3         1 9TE       0.481000
     12 C15          4.4250    -5.6890    -1.7250 cx         1 9TE       0.095500
     13 C16          5.1330    -7.0360    -1.8870 cx         1 9TE      -0.129400
     14 C17          5.1700    -6.3090    -0.5410 cx         1 9TE      -0.129400
     15 C4           1.3870     0.0010     2.3990 ca         1 9TE      -0.079000
     16 C6          -0.6920     0.0010     1.2020 ca         1 9TE       0.154100
     17 O1           2.0660    -0.0020    -1.1760 os         1 9TE      -0.242200
     18 O2          -2.0510     0.0030     1.2050 os         1 9TE      -0.324900
     19 C11          4.2860    -3.3720    -2.1390 ca         1 9TE       0.177600
     20 S1           5.3350    -2.2390    -4.3950 sy         1 9TE       1.414200
     21 N1           6.1650    -3.6870    -4.3120 n7         1 9TE      -0.906100
     22 N2           5.0360    -4.5200    -2.3730 nh         1 9TE      -0.607000
     23 O3           4.4520    -2.3320    -5.5050 o          1 9TE      -0.624800
     24 O4           6.2940    -1.2020    -4.2370 o          1 9TE      -0.624800
     25 H1          -0.5420    -0.0000    -0.9380 ha         1 9TE       0.160000
     26 H2           3.1620    -0.0000     1.2040 ha         1 9TE       0.147000
     27 H3          -0.5340     0.0020     3.3420 ha         1 9TE       0.138000
     28 H4          -2.4030     0.8880     3.0320 h1         1 9TE       0.043033
     29 H5          -3.7700     0.0040     2.3400 h1         1 9TE       0.043033
     30 H6          -2.4040    -0.8810     3.0320 h1         1 9TE       0.043033
     31 H7           3.6560    -0.2370    -3.2490 ha         1 9TE       0.156000
     32 H8           3.3930    -4.2410    -0.3840 ha         1 9TE       0.145000
     33 H9           2.0810    -2.2470     0.1800 ha         1 9TE       0.150000
     34 H10          4.4810    -4.9470    -4.3360 h2         1 9TE       0.063200
     35 H11          5.9820    -5.7170    -3.7930 h2         1 9TE       0.063200
     36 H12          3.3450    -5.7490    -1.6630 h1         1 9TE       0.090700
     37 H13          4.4840    -7.9020    -1.9330 hc         1 9TE       0.083450
     38 H14          6.0550    -7.0140    -2.4560 hc         1 9TE       0.083450
     39 H15          6.1150    -5.8440    -0.2870 hc         1 9TE       0.083450
     40 H16          4.5440    -6.7320     0.2360 hc         1 9TE       0.083450
     41 H17          1.9290     0.0010     3.3370 ha         1 9TE       0.136000
     42 H18          7.1140    -3.7830    -4.6150 hn         1 9TE       0.468800
@<TRIPOS>BOND
     1    10     9 ar
     2    10     6 ar
     3    14    12 1
     4    14    13 1
     5     9    19 ar
     6    17     2 1
     7    17     6 1
     8    12    13 1
     9    12    22 1
    10     1     2 ar
    11     1    16 ar
    12    18    16 1
    13    18     5 1
    14     2     3 ar
    15    16     4 ar
    16     6     7 ar
    17     3    15 ar
    18     4    15 ar
    19    19    22 1
    20    19     8 ar
    21    22    11 1
    22     7     8 ar
    23     8    20 1
    24    11    21 1
    25    23    20 2
    26    20    21 1
    27    20    24 2
    28     1    25 1
    29     3    26 1
    30     4    27 1
    31     5    28 1
    32     5    29 1
    33     5    30 1
    34     7    31 1
    35     9    32 1
    36    10    33 1
    37    11    34 1
    38    11    35 1
    39    12    36 1
    40    13    37 1
    41    13    38 1
    42    14    39 1
    43    14    40 1
    44    15    41 1
    45    21    42 1
@<TRIPOS>SUBSTRUCTURE
     1 9TE         1 TEMP              0 ****  ****    0 ROOT
