@<TRIPOS>MOLECULE
9TE
   42    45     1     0     0
SMALL
bcc


@<TRIPOS>ATOM
      1 C1           0.0000     0.0000     0.0000 ca         1 9TE      -0.157000
      2 C2           1.3860     0.0000     0.0000 ca         1 9TE       0.145100
      3 C3           2.0780     0.0000     1.2030 ca         1 9TE      -0.182000
      4 C5           0.0050     0.0010     2.4020 ca         1 9TE      -0.221000
      5 C7          -2.6960     0.0030     2.4790 c3         1 9TE       0.245700
      6 C8           2.7840    -1.1110    -1.4970 ca         1 9TE       0.092100
      7 C9           3.5950    -1.1170    -2.6210 ca         1 9TE       0.006000
      8 C10          4.3310    -2.2410    -2.9380 ca         1 9TE      -0.134500
      9 C12          3.4550    -3.3620    -1.0130 ca         1 9TE      -0.146000
     10 C13          2.7130    -2.2450    -0.6990 ca         1 9TE      -0.120000
     11 C14          5.3860    -4.8130    -3.7560 c3         1 9TE       0.380000
     12 C15          4.4250    -5.6890    -1.7250 cx         1 9TE       0.025500
     13 C16          5.1330    -7.0360    -1.8870 cx         1 9TE      -0.071900
     14 C17          5.1700    -6.3090    -0.5410 cx         1 9TE      -0.071900
     15 C4           1.3870     0.0010     2.3990 ca         1 9TE      -0.039000
     16 C6          -0.6920     0.0010     1.2020 ca         1 9TE       0.168100
     17 O1           2.0660    -0.0020    -1.1760 os         1 9TE      -0.215200
     18 O2          -2.0510     0.0030     1.2050 os         1 9TE      -0.304900
     19 C11          4.2860    -3.3720    -2.1390 ca         1 9TE       0.075600
     20 S1           5.3350    -2.2390    -4.3950 sy         1 9TE       1.035200
     21 N1           6.1650    -3.6870    -4.3120 n7         1 9TE      -0.572100
     22 N2           5.0360    -4.5200    -2.3730 nh         1 9TE      -0.327000
     23 O3           4.4520    -2.3320    -5.5050 o          1 9TE      -0.576300
     24 O4           6.2940    -1.2020    -4.2370 o          1 9TE      -0.576300
     25 H1          -0.5420    -0.0000    -0.9380 ha         1 9TE       0.131000
     26 H2           3.1620    -0.0000     1.2040 ha         1 9TE       0.123000
     27 H3          -0.5340     0.0020     3.3420 ha         1 9TE       0.123000
     28 H4          -2.4030     0.8880     3.0320 h1         1 9TE      -0.001300
     29 H5          -3.7700     0.0040     2.3400 h1         1 9TE      -0.001300
     30 H6          -2.4040    -0.8810     3.0320 h1         1 9TE      -0.001300
     31 H7           3.6560    -0.2370    -3.2490 ha         1 9TE       0.124000
     32 H8           3.3930    -4.2410    -0.3840 ha         1 9TE       0.126000
     33 H9           2.0810    -2.2470     0.1800 ha         1 9TE       0.126000
     34 H10          4.4810    -4.9470    -4.3360 h2         1 9TE       0.025700
     35 H11          5.9820    -5.7170    -3.7930 h2         1 9TE       0.025700
     36 H12          3.3450    -5.7490    -1.6630 h1         1 9TE       0.070700
     37 H13          4.4840    -7.9020    -1.9330 hc         1 9TE       0.052450
     38 H14          6.0550    -7.0140    -2.4560 hc         1 9TE       0.052450
     39 H15          6.1150    -5.8440    -0.2870 hc         1 9TE       0.052450
     40 H16          4.5440    -6.7320     0.2360 hc         1 9TE       0.052450
     41 H17          1.9290     0.0010     3.3370 ha         1 9TE       0.103000
     42 H18          7.1140    -3.7830    -4.6150 hn         1 9TE       0.358800
@<TRIPOS>BOND
     1     1     2 ar  
     2     1    16 ar  
     3     1    25 1   
     4     2     3 ar  
     5     2    17 1   
     6     3    15 ar  
     7     3    26 1   
     8     4    15 ar  
     9     4    16 ar  
    10     4    27 1   
    11     5    18 1   
    12     5    28 1   
    13     5    29 1   
    14     5    30 1   
    15     6     7 ar  
    16     6    10 ar  
    17     6    17 1   
    18     7     8 ar  
    19     7    31 1   
    20     8    19 ar  
    21     8    20 1   
    22     9    10 ar  
    23     9    19 ar  
    24     9    32 1   
    25    10    33 1   
    26    11    21 1   
    27    11    22 1   
    28    11    34 1   
    29    11    35 1   
    30    12    13 1   
    31    12    14 1   
    32    12    22 1   
    33    12    36 1   
    34    13    14 1   
    35    13    37 1   
    36    13    38 1   
    37    14    39 1   
    38    14    40 1   
    39    15    41 1   
    40    16    18 1   
    41    19    22 1   
    42    20    21 1   
    43    20    23 2   
    44    20    24 2   
    45    21    42 1   
@<TRIPOS>SUBSTRUCTURE
     1 9TE         1 TEMP              0 ****  ****    0 ROOT
