@<TRIPOS>MOLECULE
molecule
   14    14     1     0     0
SMALL
bcc


@<TRIPOS>ATOM
      1 O81          0.0000     0.0000     0.0000 o          1 9TK      -0.821800
      2 C81          1.2150     0.0000     0.0000 c          1 9TK       0.811100
      3 C83          2.4110     0.0000     3.4150 cc         1 9TK      -0.332600
      4 N81          1.3930     0.0010     2.5240 na         1 9TK      -0.168900
      5 C88         -0.0380     0.0010     2.8350 c3         1 9TK       0.051600
      6 C82          1.9520    -0.0000     1.2750 cd         1 9TK       0.397000
      7 N82          3.2620    -0.0010     1.4110 nc         1 9TK      -0.676000
      8 C84          3.5660     0.0060     2.7060 cc         1 9TK       0.278200
      9 H84          2.3200     0.0030     4.4950 h4         1 9TK       0.140000
     10 H883        -0.1740     0.0020     3.9100 h1         1 9TK       0.044367
     11 H882        -0.5000    -0.8830     2.4140 h1         1 9TK       0.044367
     12 H881        -0.5000     0.8860     2.4130 h1         1 9TK       0.044367
     13 H83          4.5660     0.0070     3.1220 h4         1 9TK       0.009100
     14 O1           1.8900    -0.0070    -1.1670 o          1 9TK      -0.821800
@<TRIPOS>BOND
     1     8     7 1
     2     8     3 2
     3     7     6 2
     4     3     4 1
     5     6     4 1
     6     6     2 1
     7     4     5 1
     8     2     1 1
     9     3     9 1
    10     5    10 1
    11     5    11 1
    12     5    12 1
    13     8    13 1
    14     2    14 1
@<TRIPOS>SUBSTRUCTURE
     1 9TK         1 TEMP              0 ****  ****    0 ROOT
