@<TRIPOS>MOLECULE
molecule
   14    13     1     0     0
SMALL
bcc


@<TRIPOS>ATOM
      1 C2           0.0000     0.0000     0.0000 c          1 9TS       0.872800
      2 C3           1.4710     0.0000     0.0000 ce         1 9TS      -0.182200
      3 C4           2.1350     0.0000     1.1530 c2         1 9TS      -0.220200
      4 C5           3.6420    -0.0000     1.1530 c3         1 9TS      -0.046200
      5 C6           4.1520     1.1830     1.9790 c3         1 9TS      -0.086100
      6 O1          -0.6070     0.0060     1.0520 o          1 9TS      -0.849300
      7 O2          -0.6730    -0.0010    -1.1680 o          1 9TS      -0.849300
      8 H1           2.0130    -0.0000    -0.9380 ha         1 9TS       0.098000
      9 H2           1.5930    -0.0000     2.0910 ha         1 9TS       0.141000
     10 H3           4.0030    -0.9250     1.5860 hc         1 9TS       0.026700
     11 H4           4.0030     0.0880     0.1360 hc         1 9TS       0.026700
     12 H5           3.8980     1.0310     3.0210 hc         1 9TS       0.022367
     13 H6           5.2280     1.2570     1.8770 hc         1 9TS       0.022367
     14 H7           3.6910     2.0960     1.6240 hc         1 9TS       0.022367
@<TRIPOS>BOND
     1     6     1 1
     2     1     2 1
     3     2     3 2
     4     3     4 1
     5     4     5 1
     6     1     7 1
     7     2     8 1
     8     3     9 1
     9     4    10 1
    10     4    11 1
    11     5    12 1
    12     5    13 1
    13     5    14 1
@<TRIPOS>SUBSTRUCTURE
     1 9TS         1 TEMP              0 ****  ****    0 ROOT
