@<TRIPOS>MOLECULE
9TT
   21    22     1     0     0
SMALL
bcc


@<TRIPOS>ATOM
      1 C4           0.0000     0.0000     0.0000 ca         1 9TT      -0.074000
      2 C5           1.3960     0.0000     0.0000 ca         1 9TT      -0.086800
      3 C6           2.0990     0.0000     1.2190 ca         1 9TT      -0.220200
      4 C7           2.4130    -0.0020    -1.0540 cc         1 9TT      -0.169200
      5 C8           3.6100    -0.0020    -0.4470 cd         1 9TT      -0.250100
      6 N1           3.4440    -0.0010     0.9110 na         1 9TT       0.384600
      7 C3          -0.6830     0.0010     1.2010 ca         1 9TT       0.003600
      8 C1           1.3940     0.0020     2.4180 ca         1 9TT      -0.091000
      9 C2           0.0170    -0.0030     2.4060 ca         1 9TT      -0.112000
     10 H1          -0.5420    -0.1150    -0.9310 ha         1 9TT       0.107000
     11 H2           2.2330    -0.0030    -2.1220 ha         1 9TT       0.128000
     12 H3           4.5660    -0.0020    -0.9570 h4         1 9TT       0.137000
     13 H4           4.4580    -0.8830     2.5150 h1         1 9TT       0.015700
     14 H5           5.4840     0.0000     1.3760 h1         1 9TT       0.015700
     15 H6           4.4580     0.8860     2.5120 h1         1 9TT       0.015700
     16 H7          -2.5810     0.8000     0.8570 hn         1 9TT       0.266800
     17 H8          -2.5830    -0.7650     1.6020 hn         1 9TT       0.266800
     18 H9           1.9280    -0.0010     3.3600 ha         1 9TT       0.097000
     19 H10         -0.5270    -0.0020     3.3430 ha         1 9TT       0.104000
     20 C9           4.5320     0.0010     1.8920 c3         1 9TT      -0.003400
     21 N2          -2.0820     0.0060     1.2080 nv         1 9TT      -0.535200
@<TRIPOS>BOND
     1     1     2 ar  
     2     1     7 ar  
     3     1    10 1   
     4     2     3 ar  
     5     2     4 1   
     6     3     6 1   
     7     3     8 ar  
     8     4     5 2   
     9     4    11 1   
    10     5     6 1   
    11     5    12 1   
    12     6    20 1   
    13     7     9 ar  
    14     7    21 1   
    15     8     9 ar  
    16     8    18 1   
    17     9    19 1   
    18    13    20 1   
    19    14    20 1   
    20    15    20 1   
    21    16    21 1   
    22    17    21 1   
@<TRIPOS>SUBSTRUCTURE
     1 9TT         1 TEMP              0 ****  ****    0 ROOT
