@<TRIPOS>MOLECULE
molecule
   21    22     1     0     0
SMALL
bcc


@<TRIPOS>ATOM
      1 C4           0.0000     0.0000     0.0000 ca         1 9TT      -0.112000
      2 C5           1.3960     0.0000     0.0000 ca         1 9TT      -0.089800
      3 C6           2.0990     0.0000     1.2190 ca         1 9TT      -0.050200
      4 C7           2.4130    -0.0020    -1.0540 cc         1 9TT      -0.205200
      5 C8           3.6100    -0.0020    -0.4470 cd         1 9TT      -0.097100
      6 N1           3.4440    -0.0010     0.9110 na         1 9TT      -0.078400
      7 C3          -0.6830     0.0010     1.2010 ca         1 9TT       0.141600
      8 C1           1.3940     0.0020     2.4180 ca         1 9TT      -0.132000
      9 C2           0.0170    -0.0030     2.4060 ca         1 9TT      -0.137000
     10 H1          -0.5420    -0.1150    -0.9310 ha         1 9TT       0.136000
     11 H2           2.2330    -0.0030    -2.1220 ha         1 9TT       0.153000
     12 H3           4.5660    -0.0020    -0.9570 h4         1 9TT       0.162000
     13 H4           4.4580    -0.8830     2.5150 h1         1 9TT       0.046367
     14 H5           5.4840     0.0000     1.3760 h1         1 9TT       0.046367
     15 H6           4.4580     0.8860     2.5120 h1         1 9TT       0.046367
     16 H7          -2.5810     0.8000     0.8570 hn         1 9TT       0.423800
     17 H8          -2.5830    -0.7650     1.6020 hn         1 9TT       0.423800
     18 H9           1.9280    -0.0010     3.3600 ha         1 9TT       0.123000
     19 H10         -0.5270    -0.0020     3.3430 ha         1 9TT       0.132000
     20 C9           4.5320     0.0010     1.8920 c3         1 9TT       0.041600
     21 N2          -2.0820     0.0060     1.2080 nv         1 9TT      -0.976200
@<TRIPOS>BOND
     1    20     6 1
     2     6     5 1
     3     6     3 1
     4     5     4 2
     5     3     8 ar
     6     3     2 ar
     7     8     9 ar
     8     4     2 1
     9     2     1 ar
    10     9     7 ar
    11     1     7 ar
    12     7    21 1
    13     1    10 1
    14     4    11 1
    15     5    12 1
    16    20    13 1
    17    20    14 1
    18    20    15 1
    19    21    16 1
    20    21    17 1
    21     8    18 1
    22     9    19 1
@<TRIPOS>SUBSTRUCTURE
     1 9TT         1 TEMP              0 ****  ****    0 ROOT
