@<TRIPOS>MOLECULE
9TV
   47    50     1     0     0
SMALL
bcc


@<TRIPOS>ATOM
      1 C2           0.0000     0.0000     0.0000 cc         1 9TV      -0.259700
      2 N4          -0.8220     0.0050    -1.1270 ns         1 9TV       0.003900
      3 C5           3.1990    -0.0000     1.8030 ca         1 9TV      -0.121500
      4 C7          -1.1890     0.0120    -6.0560 ca         1 9TV       0.590300
      5 C9          -1.1650     0.0090    -3.5760 c3         1 9TV      -0.092400
      6 C10          4.8080    -0.1120     3.5950 ca         1 9TV      -0.087300
      7 C11         -0.3010     0.0070    -4.8380 c3         1 9TV      -0.050700
      8 C15          4.2390     0.1040     0.8820 ca         1 9TV      -0.088000
      9 C18         -2.3420     1.2090    -7.6410 ca         1 9TV       0.442200
     10 C20          5.0520    -0.2270     5.0770 c3         1 9TV       0.036900
     11 C21          7.2840    -0.0100     3.0860 c3         1 9TV       0.035900
     12 C22          6.4950    -0.6450     5.3530 c3         1 9TV      -0.028400
     13 C            1.3590     0.0000     0.0000 cd         1 9TV      -0.329300
     14 N           -0.4130     0.0010     1.2940 na         1 9TV       0.411400
     15 O            0.9290    -0.0010    -2.4890 o          1 9TV      -0.615100
     16 C1           1.7880     0.0000     1.3400 cd         1 9TV       0.443800
     17 N3           0.7230    -0.0050     2.1130 nc         1 9TV      -0.656800
     18 C6          -0.2760     0.0040    -2.3590 c          1 9TV       0.564100
     19 C8           3.4910    -0.1090     3.1580 ca         1 9TV      -0.078000
     20 N12         -1.5770    -1.1370    -6.5720 nb         1 9TV      -0.617000
     21 N13         -1.5620     1.1650    -6.5720 nb         1 9TV      -0.617000
     22 C14          5.8330    -0.0070     2.6800 ca         1 9TV      -0.073300
     23 C16          5.5440     0.1000     1.3240 ca         1 9TV      -0.110000
     24 C17         -2.7750     0.0220    -8.2090 ca         1 9TV      -0.350600
     25 C19         -2.3600    -1.1720    -7.6370 ca         1 9TV       0.442200
     26 C23          7.4260     0.2950     4.5760 c3         1 9TV      -0.026400
     27 H1          -1.8170     0.0140    -1.0200 hn         1 9TV       0.157500
     28 H2          -1.7860     0.8970    -3.5660 hc         1 9TV       0.033700
     29 H3          -1.7950    -0.8720    -3.5680 hc         1 9TV       0.033700
     30 H4           0.3290     0.8880    -4.8470 hc         1 9TV       0.047700
     31 H5           0.3200    -0.8810    -4.8490 hc         1 9TV       0.047700
     32 H6           4.0220     0.3020    -0.1610 ha         1 9TV       0.115000
     33 H7          -2.6450     2.1610    -8.0600 h4         1 9TV      -0.013900
     34 H8           4.8810     0.7410     5.5310 hc         1 9TV       0.021700
     35 H9           4.3910    -0.9860     5.4780 hc         1 9TV       0.021700
     36 H10          7.7090    -0.9850     2.8800 hc         1 9TV       0.019200
     37 H11          7.8140     0.7440     2.5170 hc         1 9TV       0.019200
     38 H12          6.6480    -1.6650     5.0210 hc         1 9TV       0.015200
     39 H13          6.7010    -0.5650     6.4140 hc         1 9TV       0.015200
     40 H14          1.9960    -0.0820    -0.8730 ha         1 9TV       0.190000
     41 H15         -1.3640    -0.0010     1.6080 hn         1 9TV       0.144700
     42 H16          2.6860    -0.1900     3.8770 ha         1 9TV       0.122000
     43 H17          6.3530     0.1800     0.6080 ha         1 9TV       0.104000
     44 H18         -3.4150     0.0250    -9.0830 ha         1 9TV       0.124000
     45 H19         -2.6770    -2.1200    -8.0550 h4         1 9TV      -0.013900
     46 H20          8.4510     0.1280     4.8850 hc         1 9TV       0.015200
     47 H21          7.1450     1.3240     4.7660 hc         1 9TV       0.015200
@<TRIPOS>BOND
     1     1     2 1   
     2     1    13 2   
     3     1    14 1   
     4     2    18 1   
     5     2    27 1   
     6     3     8 ar  
     7     3    16 1   
     8     3    19 ar  
     9     4     7 1   
    10     4    20 ar  
    11     4    21 ar  
    12     5     7 1   
    13     5    18 1   
    14     5    28 1   
    15     5    29 1   
    16     6    10 1   
    17     6    19 ar  
    18     6    22 ar  
    19     7    30 1   
    20     7    31 1   
    21     8    23 ar  
    22     8    32 1   
    23     9    21 ar  
    24     9    24 ar  
    25     9    33 1   
    26    10    12 1   
    27    10    34 1   
    28    10    35 1   
    29    11    22 1   
    30    11    26 1   
    31    11    36 1   
    32    11    37 1   
    33    12    26 1   
    34    12    38 1   
    35    12    39 1   
    36    13    16 1   
    37    13    40 1   
    38    14    17 1   
    39    14    41 1   
    40    15    18 2   
    41    16    17 2   
    42    19    42 1   
    43    20    25 ar  
    44    22    23 ar  
    45    23    43 1   
    46    24    25 ar  
    47    24    44 1   
    48    25    45 1   
    49    26    46 1   
    50    26    47 1   
@<TRIPOS>SUBSTRUCTURE
     1 9TV         1 TEMP              0 ****  ****    0 ROOT
