@<TRIPOS>MOLECULE
molecule
   47    50     1     0     0
SMALL
bcc


@<TRIPOS>ATOM
      1 C2           0.0000     0.0000     0.0000 cc         1 9TV       0.053300
      2 N4          -0.8220     0.0050    -1.1270 ns         1 9TV      -0.461100
      3 C5           3.1990    -0.0000     1.8030 ca         1 9TV      -0.117500
      4 C7          -1.1890     0.0120    -6.0560 ca         1 9TV       0.678300
      5 C9          -1.1650     0.0090    -3.5760 c3         1 9TV      -0.151400
      6 C10          4.8080    -0.1120     3.5950 ca         1 9TV      -0.081300
      7 C11         -0.3010     0.0070    -4.8380 c3         1 9TV      -0.093700
      8 C15          4.2390     0.1040     0.8820 ca         1 9TV      -0.107000
      9 C18         -2.3420     1.2090    -7.6410 ca         1 9TV       0.459700
     10 C20          5.0520    -0.2270     5.0770 c3         1 9TV      -0.031100
     11 C21          7.2840    -0.0100     3.0860 c3         1 9TV      -0.034100
     12 C22          6.4950    -0.6450     5.3530 c3         1 9TV      -0.082400
     13 C            1.3590     0.0000     0.0000 cc         1 9TV      -0.337300
     14 N           -0.4130     0.0010     1.2940 na         1 9TV      -0.072600
     15 O            0.9290    -0.0010    -2.4890 o          1 9TV      -0.577100
     16 C1           1.7880     0.0000     1.3400 cc         1 9TV       0.408800
     17 N3           0.7230    -0.0050     2.1130 nd         1 9TV      -0.506800
     18 C6          -0.2760     0.0040    -2.3590 c          1 9TV       0.668100
     19 C8           3.4910    -0.1090     3.1580 ca         1 9TV      -0.102000
     20 N12         -1.5770    -1.1370    -6.5720 nb         1 9TV      -0.734000
     21 N13         -1.5620     1.1650    -6.5720 nb         1 9TV      -0.734000
     22 C14          5.8330    -0.0070     2.6800 ca         1 9TV      -0.067300
     23 C16          5.5440     0.1000     1.3240 ca         1 9TV      -0.135000
     24 C17         -2.7750     0.0220    -8.2090 ca         1 9TV      -0.387600
     25 C19         -2.3600    -1.1720    -7.6370 ca         1 9TV       0.459700
     26 C23          7.4260     0.2950     4.5760 c3         1 9TV      -0.080400
     27 H1          -1.8170     0.0140    -1.0200 hn         1 9TV       0.321500
     28 H2          -1.7860     0.8970    -3.5660 hc         1 9TV       0.071700
     29 H3          -1.7950    -0.8720    -3.5680 hc         1 9TV       0.071700
     30 H4           0.3290     0.8880    -4.8470 hc         1 9TV       0.085700
     31 H5           0.3200    -0.8810    -4.8490 hc         1 9TV       0.085700
     32 H6           4.0220     0.3020    -0.1610 ha         1 9TV       0.141000
     33 H7          -2.6450     2.1610    -8.0600 h4         1 9TV       0.031100
     34 H8           4.8810     0.7410     5.5310 hc         1 9TV       0.052700
     35 H9           4.3910    -0.9860     5.4780 hc         1 9TV       0.052700
     36 H10          7.7090    -0.9850     2.8800 hc         1 9TV       0.050200
     37 H11          7.8140     0.7440     2.5170 hc         1 9TV       0.050200
     38 H12          6.6480    -1.6650     5.0210 hc         1 9TV       0.043700
     39 H13          6.7010    -0.5650     6.4140 hc         1 9TV       0.043700
     40 H14          1.9960    -0.0820    -0.8730 ha         1 9TV       0.199000
     41 H15         -1.3640    -0.0010     1.6080 hn         1 9TV       0.322700
     42 H16          2.6860    -0.1900     3.8770 ha         1 9TV       0.145000
     43 H17          6.3530     0.1800     0.6080 ha         1 9TV       0.130000
     44 H18         -3.4150     0.0250    -9.0830 ha         1 9TV       0.147000
     45 H19         -2.6770    -2.1200    -8.0550 h4         1 9TV       0.031100
     46 H20          8.4510     0.1280     4.8850 hc         1 9TV       0.044200
     47 H21          7.1450     1.3240     4.7660 hc         1 9TV       0.044200
@<TRIPOS>BOND
     1    26    11 1
     2    26    12 1
     3    11    22 1
     4    22    23 ar
     5    22     6 ar
     6    23     8 ar
     7    12    10 1
     8    10     6 1
     9     6    19 ar
    10     8     3 ar
    11    19     3 ar
    12     3    16 1
    13    16    13 1
    14    16    17 2
    15    13     1 2
    16    15    18 2
    17    17    14 1
    18     1    14 1
    19     1     2 1
    20    18     2 1
    21    18     5 1
    22     7     5 1
    23     7     4 1
    24    20     4 ar
    25    20    25 ar
    26     4    21 ar
    27    25    24 ar
    28    21     9 ar
    29    24     9 ar
    30     2    27 1
    31     5    28 1
    32     5    29 1
    33     7    30 1
    34     7    31 1
    35     8    32 1
    36     9    33 1
    37    10    34 1
    38    10    35 1
    39    11    36 1
    40    11    37 1
    41    12    38 1
    42    12    39 1
    43    13    40 1
    44    14    41 1
    45    19    42 1
    46    23    43 1
    47    24    44 1
    48    25    45 1
    49    26    46 1
    50    26    47 1
@<TRIPOS>SUBSTRUCTURE
     1 9TV         1 TEMP              0 ****  ****    0 ROOT
