@<TRIPOS>MOLECULE
molecule
   17    17     1     0     0
SMALL
bcc


@<TRIPOS>ATOM
      1 C1           0.0000     0.0000     0.0000 ca         1 9TW      -0.084000
      2 C2           1.3800     0.0000     0.0000 ca         1 9TW      -0.017600
      3 C3           2.0750     0.0000     1.2000 ca         1 9TW       0.228900
      4 C4           1.3900     0.0000     2.4040 ca         1 9TW      -0.156000
      5 C5           0.0110     0.0000     2.4160 ca         1 9TW       0.001000
      6 C6          -0.6950     0.0050     1.2100 ca         1 9TW      -0.230600
      7 Cl1          2.2470    -0.0000    -1.5050 cl         1 9TW      -0.017400
      8 F1           3.4270    -0.0010     1.1940 f          1 9TW      -0.080900
      9 C7          -2.1720     0.0060     1.2170 c          1 9TW       0.511700
     10 O1          -2.7750     0.0010     2.2720 o          1 9TW      -0.413100
     11 N1          -2.8520     0.0110     0.0530 nz         1 9TW      -0.679400
     12 H1          -0.5420    -0.0730    -0.9350 ha         1 9TW       0.129000
     13 H2           1.9380    -0.0000     3.3380 ha         1 9TW       0.190000
     14 H3          -0.5220     0.0630     3.3570 ha         1 9TW       0.180000
     15 H4          -2.5960     0.8190    -0.4790 hn         1 9TW       0.479800
     16 H5          -3.8350     0.0320     0.2410 hn         1 9TW       0.479800
     17 H13         -2.6290    -0.8150    -0.4670 hn         1 9TW       0.479800
@<TRIPOS>BOND
     1     4     5 ar
     2     4     3 ar
     3     5     6 ar
     4     8     3 1
     5     3     2 ar
     6    11     9 1
     7     6     9 1
     8     6     1 ar
     9     9    10 2
    10     2     1 ar
    11     2     7 1
    12     1    12 1
    13     4    13 1
    14     5    14 1
    15    11    15 1
    16    11    16 1
    17    17    11 1
@<TRIPOS>SUBSTRUCTURE
     1 9TW         1 TEMP              0 ****  ****    0 ROOT
