@<TRIPOS>MOLECULE
molecule
   13    13     1     0     0
SMALL
bcc


@<TRIPOS>ATOM
      1 C02          0.0000     0.0000     0.0000 c          1 9TY       0.928600
      2 C03          1.5070     0.0000     0.0000 cx         1 9TY      -0.240000
      3 C04          2.1570    -0.7680    -1.1220 c          1 9TY       0.928600
      4 C07          2.2130     0.0000     1.3580 cx         1 9TY      -0.160400
      5 C08          2.2140     1.2640     0.4940 cx         1 9TY      -0.160400
      6 O01         -0.6050    -0.0020     1.0460 o          1 9TY      -0.869300
      7 O05          1.5820    -0.8000    -2.3340 o          1 9TY      -0.869300
      8 O06          3.1970    -1.3530    -0.9310 o          1 9TY      -0.869300
      9 O09         -0.6700     0.0070    -1.1630 o          1 9TY      -0.869300
     10 H1           3.1520    -0.5400     1.3960 hc         1 9TY       0.045200
     11 H2           1.5630     0.0250     2.2230 hc         1 9TY       0.045200
     12 H3           3.1520     1.4970     0.0050 hc         1 9TY       0.045200
     13 H4           1.5630     2.0620     0.8320 hc         1 9TY       0.045200
@<TRIPOS>BOND
     1     5     4 1
     2     5     2 1
     3     8     3 1
     4     4     2 1
     5     2     3 1
     6     2     1 1
     7     3     7 1
     8     1     6 1
     9     1     9 1
    10     4    10 1
    11     4    11 1
    12     5    12 1
    13     5    13 1
@<TRIPOS>SUBSTRUCTURE
     1 9TY         1 TEMP              0 ****  ****    0 ROOT
