@<TRIPOS>MOLECULE
molecule
   17    17     1     0     0
SMALL
bcc


@<TRIPOS>ATOM
      1 C4           0.0000     0.0000     0.0000 ca         1 9TZ      -0.142000
      2 C5           1.3800     0.0000     0.0000 ca         1 9TZ      -0.069300
      3 C6           2.0760     0.0000     1.2110 ca         1 9TZ      -0.085600
      4 C7           2.1350     0.0010    -1.3040 c3         1 9TZ      -0.024800
      5 C8           3.5530     0.0000     1.2160 c          1 9TZ       0.883200
      6 C3          -0.6950     0.0040     1.1950 ca         1 9TZ      -0.189000
      7 C1           1.3700    -0.0010     2.4150 ca         1 9TZ      -0.124000
      8 C2          -0.0120     0.0090     2.4020 ca         1 9TZ       0.079900
      9 F1          -0.6970     0.0150     3.5660 f          1 9TZ      -0.170900
     10 O1           4.2220    -0.1260     2.3800 o          1 9TZ      -0.834800
     11 O2           4.1650     0.1160     0.1730 o          1 9TZ      -0.834800
     12 H1          -0.5400    -0.0040    -0.9390 ha         1 9TZ       0.111000
     13 H2           2.7250     0.9060    -1.3790 hc         1 9TZ       0.040700
     14 H3           2.7900    -0.8610    -1.3430 hc         1 9TZ       0.040700
     15 H4           1.4330    -0.0420    -2.1280 hc         1 9TZ       0.040700
     16 H5          -1.7790     0.0040     1.1890 ha         1 9TZ       0.113000
     17 H6           1.9030     0.0630     3.3560 ha         1 9TZ       0.166000
@<TRIPOS>BOND
     1     6     1 ar
     2     6     8 ar
     3     1     2 ar
     4     9     8 1
     5     8     7 ar
     6     2     4 1
     7     2     3 ar
     8     7     3 ar
     9     3     5 1
    10     5    11 1
    11     5    10 1
    12     1    12 1
    13     4    13 1
    14     4    14 1
    15     4    15 1
    16     6    16 1
    17     7    17 1
@<TRIPOS>SUBSTRUCTURE
     1 9TZ         1 TEMP              0 ****  ****    0 ROOT
