@<TRIPOS>MOLECULE
molecule
   19    19     1     0     0
SMALL
bcc


@<TRIPOS>ATOM
      1 O81          0.0000     0.0000     0.0000 o          1 9U2      -0.492100
      2 C81          1.2130     0.0000     0.0000 c          1 9U2       0.489400
      3 C82          1.9460     0.0000     1.2680 cc         1 9U2       0.255800
      4 C84          3.3100    -0.0000     1.3330 cd         1 9U2      -0.106700
      5 C85          4.2420     0.0020     0.1490 c3         1 9U2      -0.001400
      6 S81          3.7870     0.0000     2.9740 ss         1 9U2      -0.195300
      7 C83          2.1040    -0.0010     3.4870 cc         1 9U2       0.446300
      8 N81          1.3340     0.0050     2.4550 nd         1 9U2      -0.612000
      9 CM8          5.1240     1.2510     0.1960 c3         1 9U2      -0.090100
     10 CM9          5.1250    -1.2470     0.1940 c3         1 9U2      -0.090100
     11 H1           1.7550    -0.0000    -0.9380 h4         1 9U2       0.006200
     12 H85          3.6640     0.0030    -0.7670 hc         1 9U2       0.063700
     13 H83          1.7660     0.0000     4.5160 h5         1 9U2       0.068100
     14 H882         4.4980     2.1330     0.2520 hc         1 9U2       0.043033
     15 H883         5.7340     1.2960    -0.6980 hc         1 9U2       0.043033
     16 H881         5.7650     1.2080     1.0690 hc         1 9U2       0.043033
     17 H992         4.5000    -2.1300     0.2480 hc         1 9U2       0.043033
     18 H993         5.7350    -1.2900    -0.7000 hc         1 9U2       0.043033
     19 H991         5.7660    -1.2050     1.0670 hc         1 9U2       0.043033
@<TRIPOS>BOND
     1     7     6 1
     2     7     8 2
     3     6     4 1
     4     8     3 1
     5     4     3 2
     6     4     5 1
     7     3     2 1
     8     9     5 1
     9     5    10 1
    10     2     1 2
    11     2    11 1
    12     5    12 1
    13     7    13 1
    14     9    14 1
    15     9    15 1
    16     9    16 1
    17    10    17 1
    18    10    18 1
    19    10    19 1
@<TRIPOS>SUBSTRUCTURE
     1 9U2         1 TEMP              0 ****  ****    0 ROOT
