@<TRIPOS>MOLECULE
9U4
   71    76     1     0     0
SMALL
bcc


@<TRIPOS>ATOM
      1 C14          0.0000     0.0000     0.0000 c3         1 9U4      -0.082400
      2 C6           3.8040     0.5120    -3.9290 c3         1 9U4       0.069000
      3 C7           3.3600     0.0400    -2.5390 c3         1 9U4       0.040900
      4 C8           2.8050     1.2180    -1.7790 cc         1 9U4      -0.225600
      5 C9           3.0280     2.5160    -2.1060 cd         1 9U4      -0.346600
      6 C10          2.3610     3.3190    -1.1760 cd         1 9U4       0.489200
      7 C13          1.5320     0.0000     0.0000 c3         1 9U4      -0.041000
      8 C3           5.8660     1.8200    -4.1300 c          1 9U4       0.601100
      9 C1           7.9570     3.0490    -4.3700 c3         1 9U4       0.102300
     10 C15         -0.5020    -1.2140     0.7870 c3         1 9U4       0.219400
     11 C17          1.4520    -1.2130     2.1790 c3         1 9U4       0.219400
     12 C18          2.0310     0.0000     1.4480 c3         1 9U4      -0.082400
     13 C20          1.3690     5.4650    -1.9630 c3         1 9U4       0.175800
     14 C21          2.1130     6.6150    -2.6540 c3         1 9U4      -0.047400
     15 C22          2.6600     7.5610    -1.5860 c3         1 9U4       0.040900
     16 C23          3.4400     6.7940    -0.5500 ca         1 9U4      -0.132300
     17 C24          3.2580     5.4310    -0.3700 ca         1 9U4       0.061600
     18 C25          3.9890     4.7500     0.5990 ca         1 9U4      -0.127000
     19 C26          4.9010     5.4240     1.3820 ca         1 9U4      -0.149300
     20 C27          5.0880     6.7930     1.2020 ca         1 9U4       0.029000
     21 C28          4.3540     7.4730     0.2340 ca         1 9U4      -0.071000
     22 C29          6.0680     7.5270     2.0420 cc         1 9U4      -0.279300
     23 C30          7.4390     7.2290     2.1730 cc         1 9U4       0.398200
     24 C33          5.8080     8.6150     2.8210 cd         1 9U4      -0.231300
     25 C35          5.6910     4.6850     2.4300 c3         1 9U4       0.471200
     26 C38          3.8600     2.9560    -3.2870 c3         1 9U4       0.162300
     27 F36          7.0290     4.6000     2.0310 f          1 9U4      -0.225800
     28 F37          5.6090     5.3710     3.6470 f          1 9U4      -0.225800
     29 N11          1.7540     2.5260    -0.3210 nc         1 9U4      -0.645800
     30 N12          2.0200     1.1990    -0.6870 na         1 9U4       0.527400
     31 N19          2.3450     4.7180    -1.1570 nh         1 9U4      -0.311700
     32 N31          7.9660     8.0950     2.9970 nd         1 9U4      -0.647800
     33 N32          6.9630     8.9760     3.4180 na         1 9U4       0.487400
     34 N5           4.5620     1.7650    -3.7960 n          1 9U4      -0.189800
     35 O16          0.0240    -1.1690     2.1150 os         1 9U4      -0.402600
     36 O4           6.4070     0.8550    -4.6330 o          1 9U4      -0.706100
     37 H1          -0.3610     0.9080     0.4680 hc         1 9U4       0.039950
     38 H2          -0.3610    -0.0570    -1.0200 hc         1 9U4       0.039950
     39 H3           4.4630    -0.2400    -4.3470 h1         1 9U4       0.043200
     40 H4           2.9160     0.7140    -4.5170 h1         1 9U4       0.043200
     41 H5           2.5670    -0.6880    -2.6650 hc         1 9U4       0.033200
     42 H6           4.2320    -0.3250    -2.0100 hc         1 9U4       0.033200
     43 H7           1.8930    -0.8870    -0.5060 h1         1 9U4       0.047700
     44 H8           6.1550     3.7060    -3.4020 hn         1 9U4       0.179500
     45 H9           8.3380     4.0400    -4.1550 h1         1 9U4       0.008033
     46 H10          8.5650     2.3100    -3.8610 h1         1 9U4       0.008033
     47 H11          7.9920     2.8720    -5.4380 h1         1 9U4       0.008033
     48 H12         -1.5850    -1.1940     0.8280 h1         1 9U4       0.010700
     49 H13         -0.1700    -2.1220     0.2990 h1         1 9U4       0.010700
     50 H14          1.8050    -2.1220     1.7060 h1         1 9U4       0.010700
     51 H15          1.7670    -1.1940     3.2150 h1         1 9U4       0.010700
     52 H16          1.7070     0.9080     1.9420 hc         1 9U4       0.039950
     53 H17          3.1130    -0.0570     1.4560 hc         1 9U4       0.039950
     54 H18          0.5930     5.8640    -1.3210 h1         1 9U4       0.022200
     55 H19          0.9340     4.8100    -2.7090 h1         1 9U4       0.022200
     56 H20          1.4160     7.1580    -3.2800 hc         1 9U4       0.023700
     57 H21          2.9420     6.2070    -3.2190 hc         1 9U4       0.023700
     58 H22          1.8250     8.0500    -1.0980 hc         1 9U4       0.024200
     59 H23          3.3240     8.2720    -2.0620 hc         1 9U4       0.024200
     60 H24          3.8420     3.6850     0.7370 ha         1 9U4       0.123000
     61 H25          4.5000     8.5370     0.0940 ha         1 9U4       0.110000
     62 H26          7.9640     6.4200     1.6790 h4         1 9U4       0.023100
     63 H27          4.8730     9.1610     2.8600 h4         1 9U4       0.145000
     64 H28          8.1410    10.0770     4.7500 h1         1 9U4       0.020367
     65 H29          6.9830    11.0300     3.8130 h1         1 9U4       0.020367
     66 H30          6.4190    10.0170     5.1490 h1         1 9U4       0.020367
     67 H31          5.2860     3.6870     2.5500 h2         1 9U4       0.026700
     68 H32          3.2160     3.3610    -4.0580 h1         1 9U4       0.023200
     69 H33          4.5810     3.7010    -2.9720 h1         1 9U4       0.023200
     70 C34          7.1380    10.0980     4.3430 c3         1 9U4       0.024600
     71 N2           6.5710     2.9480    -3.9070 ns         1 9U4      -0.232900
@<TRIPOS>BOND
     1     1     7 1   
     2     1    10 1   
     3     1    37 1   
     4     1    38 1   
     5     2     3 1   
     6     2    34 1   
     7     2    39 1   
     8     2    40 1   
     9     3     4 1   
    10     3    41 1   
    11     3    42 1   
    12     4     5 2   
    13     4    30 1   
    14     5     6 1   
    15     5    26 1   
    16     6    29 2   
    17     6    31 1   
    18     7    12 1   
    19     7    30 1   
    20     7    43 1   
    21     8    34 1   
    22     8    36 2   
    23     8    71 1   
    24     9    45 1   
    25     9    46 1   
    26     9    47 1   
    27     9    71 1   
    28    10    35 1   
    29    10    48 1   
    30    10    49 1   
    31    11    12 1   
    32    11    35 1   
    33    11    50 1   
    34    11    51 1   
    35    12    52 1   
    36    12    53 1   
    37    13    14 1   
    38    13    31 1   
    39    13    54 1   
    40    13    55 1   
    41    14    15 1   
    42    14    56 1   
    43    14    57 1   
    44    15    16 1   
    45    15    58 1   
    46    15    59 1   
    47    16    17 ar  
    48    16    21 ar  
    49    17    18 ar  
    50    17    31 1   
    51    18    19 ar  
    52    18    60 1   
    53    19    20 ar  
    54    19    25 1   
    55    20    21 ar  
    56    20    22 1   
    57    21    61 1   
    58    22    23 1   
    59    22    24 2   
    60    23    32 2   
    61    23    62 1   
    62    24    33 1   
    63    24    63 1   
    64    25    27 1   
    65    25    28 1   
    66    25    67 1   
    67    26    34 1   
    68    26    68 1   
    69    26    69 1   
    70    29    30 1   
    71    32    33 1   
    72    33    70 1   
    73    44    71 1   
    74    64    70 1   
    75    65    70 1   
    76    66    70 1   
@<TRIPOS>SUBSTRUCTURE
     1 9U4         1 TEMP              0 ****  ****    0 ROOT
