@<TRIPOS>MOLECULE
molecule
   71    76     1     0     0
SMALL
bcc


@<TRIPOS>ATOM
      1 C14          0.0000     0.0000     0.0000 c3         1 9U4      -0.132400
      2 C6           3.8040     0.5120    -3.9290 c3         1 9U4       0.130000
      3 C7           3.3600     0.0400    -2.5390 c3         1 9U4      -0.044100
      4 C8           2.8050     1.2180    -1.7790 cc         1 9U4      -0.052600
      5 C9           3.0280     2.5160    -2.1060 cd         1 9U4      -0.337600
      6 C10          2.3610     3.3190    -1.1760 cd         1 9U4       0.593200
      7 C13          1.5320     0.0000     0.0000 c3         1 9U4       0.085000
      8 C3           5.8660     1.8200    -4.1300 c          1 9U4       0.790100
      9 C1           7.9570     3.0490    -4.3700 c3         1 9U4       0.120300
     10 C15         -0.5020    -1.2140     0.7870 c3         1 9U4       0.138400
     11 C17          1.4520    -1.2130     2.1790 c3         1 9U4       0.138400
     12 C18          2.0310     0.0000     1.4480 c3         1 9U4      -0.132400
     13 C20          1.3690     5.4650    -1.9630 c3         1 9U4       0.249800
     14 C21          2.1130     6.6150    -2.6540 c3         1 9U4      -0.103400
     15 C22          2.6600     7.5610    -1.5860 c3         1 9U4      -0.029100
     16 C23          3.4400     6.7940    -0.5500 ca         1 9U4      -0.128300
     17 C24          3.2580     5.4310    -0.3700 ca         1 9U4       0.201600
     18 C25          3.9890     4.7500     0.5990 ca         1 9U4      -0.154000
     19 C26          4.9010     5.4240     1.3820 ca         1 9U4      -0.129300
     20 C27          5.0880     6.7930     1.2020 ca         1 9U4       0.004000
     21 C28          4.3540     7.4730     0.2340 ca         1 9U4      -0.094000
     22 C29          6.0680     7.5270     2.0420 cc         1 9U4      -0.274300
     23 C30          7.4390     7.2290     2.1730 cc         1 9U4       0.350200
     24 C33          5.8080     8.6150     2.8210 cd         1 9U4      -0.092300
     25 C35          5.6910     4.6850     2.4300 c3         1 9U4       0.459200
     26 C38          3.8600     2.9560    -3.2870 c3         1 9U4       0.196300
     27 F36          7.0290     4.6000     2.0310 f          1 9U4      -0.237800
     28 F37          5.6090     5.3710     3.6470 f          1 9U4      -0.237800
     29 N11          1.7540     2.5260    -0.3210 nc         1 9U4      -0.515800
     30 N12          2.0200     1.1990    -0.6870 na         1 9U4       0.084400
     31 N19          2.3450     4.7180    -1.1570 nh         1 9U4      -0.701700
     32 N31          7.9660     8.0950     2.9970 nd         1 9U4      -0.513800
     33 N32          6.9630     8.9760     3.4180 na         1 9U4       0.063400
     34 N5           4.5620     1.7650    -3.7960 n          1 9U4      -0.515800
     35 O16          0.0240    -1.1690     2.1150 os         1 9U4      -0.415600
     36 O4           6.4070     0.8550    -4.6330 o          1 9U4      -0.662100
     37 H1          -0.3610     0.9080     0.4680 hc         1 9U4       0.069950
     38 H2          -0.3610    -0.0570    -1.0200 hc         1 9U4       0.069950
     39 H3           4.4630    -0.2400    -4.3470 h1         1 9U4       0.072700
     40 H4           2.9160     0.7140    -4.5170 h1         1 9U4       0.072700
     41 H5           2.5670    -0.6880    -2.6650 hc         1 9U4       0.067200
     42 H6           4.2320    -0.3250    -2.0100 hc         1 9U4       0.067200
     43 H7           1.8930    -0.8870    -0.5060 h1         1 9U4       0.069700
     44 H8           6.1550     3.7060    -3.4020 hn         1 9U4       0.315500
     45 H9           8.3380     4.0400    -4.1550 h1         1 9U4       0.040367
     46 H10          8.5650     2.3100    -3.8610 h1         1 9U4       0.040367
     47 H11          7.9920     2.8720    -5.4380 h1         1 9U4       0.040367
     48 H12         -1.5850    -1.1940     0.8280 h1         1 9U4       0.050700
     49 H13         -0.1700    -2.1220     0.2990 h1         1 9U4       0.050700
     50 H14          1.8050    -2.1220     1.7060 h1         1 9U4       0.050700
     51 H15          1.7670    -1.1940     3.2150 h1         1 9U4       0.050700
     52 H16          1.7070     0.9080     1.9420 hc         1 9U4       0.069950
     53 H17          3.1130    -0.0570     1.4560 hc         1 9U4       0.069950
     54 H18          0.5930     5.8640    -1.3210 h1         1 9U4       0.052200
     55 H19          0.9340     4.8100    -2.7090 h1         1 9U4       0.052200
     56 H20          1.4160     7.1580    -3.2800 hc         1 9U4       0.054700
     57 H21          2.9420     6.2070    -3.2190 hc         1 9U4       0.054700
     58 H22          1.8250     8.0500    -1.0980 hc         1 9U4       0.055200
     59 H23          3.3240     8.2720    -2.0620 hc         1 9U4       0.055200
     60 H24          3.8420     3.6850     0.7370 ha         1 9U4       0.147000
     61 H25          4.5000     8.5370     0.0940 ha         1 9U4       0.137000
     62 H26          7.9640     6.4200     1.6790 h4         1 9U4       0.066100
     63 H27          4.8730     9.1610     2.8600 h4         1 9U4       0.170000
     64 H28          8.1410    10.0770     4.7500 h1         1 9U4       0.053367
     65 H29          6.9830    11.0300     3.8130 h1         1 9U4       0.053367
     66 H30          6.4190    10.0170     5.1490 h1         1 9U4       0.053367
     67 H31          5.2860     3.6870     2.5500 h2         1 9U4       0.066700
     68 H32          3.2160     3.3610    -4.0580 h1         1 9U4       0.051700
     69 H33          4.5810     3.7010    -2.9720 h1         1 9U4       0.051700
     70 C34          7.1380    10.0980     4.3430 c3         1 9U4       0.064600
     71 N2           6.5710     2.9480    -3.9070 ns         1 9U4      -0.607900
@<TRIPOS>BOND
     1    36     8 2
     2     9    71 1
     3     8    71 1
     4     8    34 1
     5     2    34 1
     6     2     3 1
     7    34    26 1
     8    26     5 1
     9     3     4 1
    10     5     4 2
    11     5     6 1
    12     4    30 1
    13    13    31 1
    14    13    14 1
    15     6    31 1
    16     6    29 2
    17    30     7 1
    18    30    29 1
    19    31    17 1
    20    14    15 1
    21     7    12 1
    22     7     1 1
    23    15    16 1
    24    17    16 ar
    25    17    18 ar
    26    12    11 1
    27     1    10 1
    28    16    21 ar
    29    18    19 ar
    30    10    35 1
    31    11    35 1
    32    21    20 ar
    33    19    20 ar
    34    19    25 1
    35    28    25 1
    36    27    25 1
    37    20    22 1
    38    22    23 1
    39    22    24 2
    40    23    32 2
    41    24    33 1
    42    32    33 1
    43    33    70 1
    44     1    37 1
    45     1    38 1
    46     2    39 1
    47     2    40 1
    48     3    41 1
    49     3    42 1
    50     7    43 1
    51    71    44 1
    52     9    45 1
    53     9    46 1
    54     9    47 1
    55    10    48 1
    56    10    49 1
    57    11    50 1
    58    11    51 1
    59    12    52 1
    60    12    53 1
    61    13    54 1
    62    13    55 1
    63    14    56 1
    64    14    57 1
    65    15    58 1
    66    15    59 1
    67    18    60 1
    68    21    61 1
    69    23    62 1
    70    24    63 1
    71    70    64 1
    72    70    65 1
    73    70    66 1
    74    25    67 1
    75    26    68 1
    76    26    69 1
@<TRIPOS>SUBSTRUCTURE
     1 9U4         1 TEMP              0 ****  ****    0 ROOT
