@<TRIPOS>MOLECULE
molecule
   48    50     1     0     0
SMALL
bcc


@<TRIPOS>ATOM
      1 C4           0.0000     0.0000     0.0000 ca         1 9U5      -0.103000
      2 C14         -2.2900    -1.5630     4.5670 c3         1 9U5      -0.172100
      3 C5           1.3990     0.0000     0.0000 ca         1 9U5       0.063000
      4 C6           2.0960     0.0000     1.2120 ca         1 9U5      -0.096000
      5 C7           2.1640    -0.0110     3.7030 c3         1 9U5      -0.010500
      6 C8           1.2820     0.3810     4.8510 c2         1 9U5      -0.209200
      7 C9          -0.0280     0.3790     4.7740 c2         1 9U5      -0.019000
      8 C10          2.7110    -1.4170     3.9520 c3         1 9U5      -0.061600
      9 C13         -2.9210     0.8220     4.1680 c3         1 9U5      -0.172100
     10 N1          -0.6830     0.0120     3.6060 nh         1 9U5      -0.587800
     11 C3          -0.6830     0.0020     1.1950 ca         1 9U5      -0.129000
     12 C1           1.4040     0.0000     2.4050 ca         1 9U5      -0.128300
     13 C2           0.0130    -0.0020     2.3980 ca         1 9U5       0.119600
     14 C15          2.1160    -0.0010    -1.2400 cg         1 9U5      -0.195000
     15 C16          2.7010     0.0190    -2.2580 ch         1 9U5      -0.018000
     16 C17          3.3450    -0.2320    -3.5820 ca         1 9U5      -0.049000
     17 C18          4.9900     0.1260    -3.6300 ca         1 9U5      -0.126500
     18 C19          5.5950    -0.1290    -4.9400 ca         1 9U5      -0.117500
     19 C20          4.8510    -0.6320    -6.0600 ca         1 9U5      -0.044600
     20 C21          3.3760    -0.9620    -6.0460 ca         1 9U5      -0.117500
     21 C22          2.7660    -0.6930    -4.6850 ca         1 9U5      -0.126500
     22 C23          5.7640    -1.1960    -7.1740 c          1 9U5       0.835200
     23 O1           6.3730    -0.2910    -7.8810 o          1 9U5      -0.822800
     24 O2           5.7350    -2.3220    -7.8290 o          1 9U5      -0.822800
     25 H1          -0.6540     0.0470    -0.8630 ha         1 9U5       0.145000
     26 H2          -2.6900    -2.3940     3.9990 hc         1 9U5       0.050700
     27 H3          -1.2760    -1.3590     4.2440 hc         1 9U5       0.050700
     28 H4          -2.2890    -1.8120     5.6210 hc         1 9U5       0.050700
     29 H5           3.1790    -0.0070     1.2130 ha         1 9U5       0.149000
     30 H6           3.7710     0.9190     2.6220 hc         1 9U5       0.042867
     31 H7           4.0780     0.7180     4.3520 hc         1 9U5       0.042867
     32 H8           2.9710     1.9790     3.7910 hc         1 9U5       0.042867
     33 H9           0.3810    -0.1830     5.0600 ha         1 9U5       0.165000
     34 H10         -0.6220     0.6710     5.6310 h4         1 9U5       0.167000
     35 H11          1.9080    -2.0640     4.2850 hc         1 9U5       0.042867
     36 H12          3.1330    -1.8090     3.0340 hc         1 9U5       0.042867
     37 H13          3.4810    -1.3760     4.7140 hc         1 9U5       0.042867
     38 H14         -1.0520    -0.0850     3.6160 h1         1 9U5       0.290700
     39 H15         -3.9470     0.5100     4.3190 hc         1 9U5       0.050700
     40 H16         -2.5050     1.1620     5.1090 hc         1 9U5       0.050700
     41 H17         -2.8930     1.6310     3.4480 hc         1 9U5       0.050700
     42 H18         -1.7660    -0.0080     1.1990 ha         1 9U5       0.162000
     43 H19          5.5960     0.0060    -2.7410 ha         1 9U5       0.117000
     44 H20          6.6490     0.0800    -5.0720 ha         1 9U5       0.156500
     45 H21          2.8260    -1.0200    -6.9780 ha         1 9U5       0.156500
     46 H22          1.6920    -0.8280    -4.6290 ha         1 9U5       0.117000
     47 C11          3.3310     0.9730     3.6100 c3         1 9U5      -0.061600
     48 C12         -2.1000    -0.3580     3.6430 c3         1 9U5      -0.015500
@<TRIPOS>BOND
     1    23    22 1
     2    24    22 1
     3    22    19 1
     4    19    18 ar
     5    19    20 ar
     6    18    17 ar
     7    20    21 ar
     8    17    16 ar
     9    21    16 ar
    10    16    15 1
    11    15    14 3
    12    14     3 1
    13     3     1 ar
    14     3     4 ar
    15     1    11 ar
    16     4    12 ar
    17    11    13 ar
    18    12    13 ar
    19    12     5 1
    20    13    10 1
    21    47     5 1
    22     5     8 1
    23     5     6 1
    24    10    48 1
    25    10     7 1
    26    48     2 1
    27    48     9 1
    28     7     6 2
    29     1    25 1
    30     2    26 1
    31     2    27 1
    32     2    28 1
    33     4    29 1
    34    47    30 1
    35    47    31 1
    36    47    32 1
    37     6    33 1
    38     7    34 1
    39     8    35 1
    40     8    36 1
    41     8    37 1
    42    48    38 1
    43     9    39 1
    44     9    40 1
    45     9    41 1
    46    11    42 1
    47    17    43 1
    48    18    44 1
    49    20    45 1
    50    21    46 1
@<TRIPOS>SUBSTRUCTURE
     1 9U5         1 TEMP              0 ****  ****    0 ROOT
