@<TRIPOS>MOLECULE
9U5
   48    51     1     0     0
SMALL
bcc


@<TRIPOS>ATOM
      1 C4           0.0000     0.0000     0.0000 ca         1 9U5      -0.082000
      2 C14         -2.2900    -1.5630     4.5670 c3         1 9U5      -0.234500
      3 C5           1.3990     0.0000     0.0000 ca         1 9U5       0.103000
      4 C6           2.0960     0.0000     1.2120 ca         1 9U5      -0.079000
      5 C7           2.1640    -0.0110     3.7030 c3         1 9U5      -0.019000
      6 C8           1.2820     0.3810     4.8510 c2         1 9U5      -0.190000
      7 C9          -0.0280     0.3790     4.7740 c3         1 9U5      -0.184000
      8 C10          2.7110    -1.4170     3.9520 c3         1 9U5      -0.092000
      9 C13         -2.9210     0.8220     4.1680 c3         1 9U5      -0.234500
     10 N1          -0.6830     0.0120     3.6060 nh         1 9U5       0.363000
     11 C3          -0.6830     0.0020     1.1950 ca         1 9U5      -0.109000
     12 C1           1.4040     0.0000     2.4050 ca         1 9U5      -0.123000
     13 C2           0.0130    -0.0020     2.3980 ca         1 9U5      -0.129000
     14 C15          2.1160    -0.0010    -1.2400 c1         1 9U5      -0.214000
     15 C16          2.7010     0.0190    -2.2580 c1         1 9U5      -0.015000
     16 C17          3.3450    -0.2320    -3.5820 ca         1 9U5      -0.014000
     17 C18          4.9900     0.1260    -3.6300 ca         1 9U5      -0.113500
     18 C19          5.5950    -0.1290    -4.9400 ca         1 9U5      -0.079500
     19 C20          4.8510    -0.6320    -6.0600 ca         1 9U5      -0.021000
     20 C21          3.3760    -0.9620    -6.0460 ca         1 9U5      -0.079500
     21 C22          2.7660    -0.6930    -4.6850 ca         1 9U5      -0.113500
     22 C23          5.7640    -1.1960    -7.1740 c2         1 9U5       0.369000
     23 O1           6.3730    -0.2910    -7.8810 o          1 9U5      -0.607000
     24 O2           5.7350    -2.3220    -7.8290 o          1 9U5      -0.607000
     25 H1          -0.6540     0.0470    -0.8630 ha         1 9U5       0.114000
     26 H2          -2.6900    -2.3940     3.9990 hc         1 9U5       0.067167
     27 H3          -1.2760    -1.3590     4.2440 hc         1 9U5       0.067167
     28 H4          -2.2890    -1.8120     5.6210 hc         1 9U5       0.067167
     29 H5           3.1790    -0.0070     1.2130 ha         1 9U5       0.127000
     30 H6           3.7710     0.9190     2.6220 hc         1 9U5       0.049167
     31 H7           4.0780     0.7180     4.3520 hc         1 9U5       0.049167
     32 H8           2.9710     1.9790     3.7910 hc         1 9U5       0.049167
     33 H9           0.3810    -0.1830     5.0600 DU         1 9U5       0.110000
     34 H10         -0.6220     0.6710     5.6310 h1         1 9U5       0.136000
     35 H11          1.9080    -2.0640     4.2850 hc         1 9U5       0.049167
     36 H12          3.1330    -1.8090     3.0340 hc         1 9U5       0.049167
     37 H13          3.4810    -1.3760     4.7140 hc         1 9U5       0.049167
     38 H14         -1.0520    -0.0850     3.6160 h1         1 9U5       0.092000
     39 H15         -3.9470     0.5100     4.3190 hc         1 9U5       0.067167
     40 H16         -2.5050     1.1620     5.1090 hc         1 9U5       0.067167
     41 H17         -2.8930     1.6310     3.4480 hc         1 9U5       0.067167
     42 H18         -1.7660    -0.0080     1.1990 ha         1 9U5       0.135000
     43 H19          5.5960     0.0060    -2.7410 ha         1 9U5       0.087000
     44 H20          6.6490     0.0800    -5.0720 ha         1 9U5       0.122000
     45 H21          2.8260    -1.0200    -6.9780 ha         1 9U5       0.122000
     46 H22          1.6920    -0.8280    -4.6290 ha         1 9U5       0.087000
     47 C11          3.3310     0.9730     3.6100 c3         1 9U5      -0.092000
     48 C12         -2.1000    -0.3580     3.6430 c3         1 9U5      -0.233000
@<TRIPOS>BOND
     1     1     3 1   
     2     1    11 1   
     3     1    25 1   
     4     2    26 1   
     5     2    27 1   
     6     2    28 1   
     7     2    48 1   
     8     3     4 1   
     9     3    14 1   
    10     4    12 1   
    11     4    29 1   
    12     5     6 1   
    13     5     8 1   
    14     5    12 1   
    15     5    47 1   
    16     6     7 1   
    17     6    33 1   
    18     7    10 1   
    19     7    33 1   
    20     7    34 1   
    21     8    35 1   
    22     8    36 1   
    23     8    37 1   
    24     9    39 1   
    25     9    40 1   
    26     9    41 1   
    27     9    48 1   
    28    10    13 1   
    29    10    48 1   
    30    11    13 1   
    31    11    42 1   
    32    12    13 1   
    33    14    15 1   
    34    15    16 1   
    35    16    17 1   
    36    16    21 1   
    37    17    18 1   
    38    17    43 1   
    39    18    19 1   
    40    18    44 1   
    41    19    20 1   
    42    19    22 1   
    43    20    21 1   
    44    20    45 1   
    45    21    46 1   
    46    22    23 1   
    47    22    24 1   
    48    30    47 1   
    49    31    47 1   
    50    32    47 1   
    51    38    48 1   
@<TRIPOS>SUBSTRUCTURE
     1 9U5         1 TEMP              0 ****  ****    0 ROOT
