@<TRIPOS>MOLECULE
molecule
   63    68     1     0     0
SMALL
bcc


@<TRIPOS>ATOM
      1 C7           0.0000     0.0000     0.0000 cc         1 9U7      -0.063600
      2 C9          -2.1090    -0.2310     0.6860 cd         1 9U7       0.605200
      3 C2           1.8410    -2.0710     2.7540 c          1 9U7       0.662100
      4 C6           1.5080     0.0000     0.0000 c3         1 9U7      -0.037100
      5 C1           3.3210    -2.2770     2.5600 c3         1 9U7      -0.171100
      6 C12         -0.4120     0.7600    -2.3500 c3         1 9U7       0.047000
      7 C14         -0.9880    -0.1850    -3.4280 c3         1 9U7      -0.127400
      8 C15         -1.8880     0.7300    -4.2880 c3         1 9U7       0.123400
      9 C17         -1.0310     2.1360    -2.6830 c3         1 9U7       0.113400
     10 C19         -3.8450     0.5690     2.2840 c3         1 9U7       0.250800
     11 C20         -4.1120     0.0200     3.6910 c3         1 9U7      -0.103400
     12 C21         -5.1090    -1.1340     3.5910 c3         1 9U7      -0.026100
     13 C22         -4.6530    -2.1360     2.5630 ca         1 9U7      -0.137300
     14 C23         -3.7490    -1.7950     1.5690 ca         1 9U7       0.203600
     15 C24         -3.3510    -2.7410     0.6270 ca         1 9U7      -0.175000
     16 C25         -3.8520    -4.0230     0.6810 ca         1 9U7      -0.096000
     17 C26         -4.7590    -4.3720     1.6800 ca         1 9U7      -0.030000
     18 C27         -5.1560    -3.4240     2.6190 ca         1 9U7      -0.090000
     19 C28         -5.3000    -5.7530     1.7440 cd         1 9U7      -0.248300
     20 C29         -6.2180    -6.2440     2.6920 cd         1 9U7       0.342200
     21 C32         -5.0030    -6.7760     0.8910 cc         1 9U7      -0.108300
     22 C34         -0.2110    -0.7700     2.4010 c3         1 9U7       0.196300
     23 C5           2.0030     0.0000     1.4510 c3         1 9U7       0.109000
     24 C8          -0.7680    -0.3470     1.0630 cd         1 9U7      -0.322600
     25 N10         -2.1430     0.1670    -0.5650 nc         1 9U7      -0.518800
     26 N11         -0.8240     0.3230    -1.0130 na         1 9U7       0.079400
     27 N18         -3.2190    -0.5010     1.4970 nh         1 9U7      -0.703700
     28 N30         -6.4520    -7.5010     2.4190 nc         1 9U7      -0.514800
     29 N31         -5.7010    -7.8580     1.2920 na         1 9U7       0.064400
     30 N4           1.2360    -0.9900     2.2230 n          1 9U7      -0.499800
     31 O16         -1.3600     2.0590    -4.0900 os         1 9U7      -0.407600
     32 O3           1.1940    -2.8780     3.3870 o          1 9U7      -0.600100
     33 H1           1.8700    -0.8870    -0.5060 hc         1 9U7       0.059200
     34 H2           1.8700     0.8870    -0.5060 hc         1 9U7       0.059200
     35 H3           3.6330    -3.1700     3.0880 hc         1 9U7       0.060033
     36 H4           3.5340    -2.3880     1.5040 hc         1 9U7       0.060033
     37 H5           3.8580    -1.4210     2.9480 hc         1 9U7       0.060033
     38 H6           0.6670     0.8050    -2.4250 h1         1 9U7       0.079700
     39 H7          -1.5760    -0.9700    -2.9680 hc         1 9U7       0.068700
     40 H8          -0.1890    -0.6030    -4.0300 hc         1 9U7       0.068700
     41 H9          -1.8200     0.4510    -5.3320 h1         1 9U7       0.059700
     42 H10         -2.9140     0.6780    -3.9430 h1         1 9U7       0.059700
     43 H11         -1.9270     2.2970    -2.0960 h1         1 9U7       0.068200
     44 H12         -0.3100     2.9250    -2.5080 h1         1 9U7       0.068200
     45 H13         -3.1760     1.4190     2.3440 h1         1 9U7       0.048200
     46 H14         -4.7800     0.8630     1.8230 h1         1 9U7       0.048200
     47 H15         -3.1830    -0.3540     4.1040 hc         1 9U7       0.054700
     48 H16         -4.5450     0.8060     4.2980 hc         1 9U7       0.054700
     49 H17         -5.1640    -1.6280     4.5540 hc         1 9U7       0.052200
     50 H18         -6.0680    -0.7370     3.2840 hc         1 9U7       0.052200
     51 H19         -2.6460    -2.4680    -0.1480 ha         1 9U7       0.139000
     52 H20         -3.5410    -4.7590    -0.0510 ha         1 9U7       0.124000
     53 H21         -5.8610    -3.6960     3.3950 ha         1 9U7       0.130000
     54 H22         -6.6530    -5.6790     3.5080 h4         1 9U7       0.049100
     55 H23         -4.2530    -6.7550     0.1090 h4         1 9U7       0.171000
     56 H24         -4.6800    -9.5910     0.7160 h1         1 9U7       0.053700
     57 H25         -6.3720    -9.8360     1.1690 h1         1 9U7       0.053700
     58 H26         -5.9720    -9.0850    -0.3810 h1         1 9U7       0.053700
     59 H27         -0.6860    -1.6880     2.7240 h1         1 9U7       0.072700
     60 H28         -0.3760     0.0130     3.1320 h1         1 9U7       0.072700
     61 H29          3.0440    -0.3010     1.4540 h1         1 9U7       0.060200
     62 H30          1.8130     0.9790     1.8740 h1         1 9U7       0.060200
     63 C33         -5.6800    -9.1790     0.6580 c3         1 9U7       0.064600
@<TRIPOS>BOND
     1     8     7 1
     2     8    31 1
     3     7     6 1
     4    31     9 1
     5     9     6 1
     6     6    26 1
     7     4     1 1
     8     4    23 1
     9    26     1 1
    10    26    25 1
    11     1    24 2
    12    23    30 1
    13    25     2 2
    14    32     3 2
    15    24     2 1
    16    24    22 1
    17    30     3 1
    18    30    22 1
    19     2    27 1
    20     3     5 1
    21    15    16 ar
    22    15    14 ar
    23    27    14 1
    24    27    10 1
    25    16    17 ar
    26    14    13 ar
    27    10    11 1
    28    17    19 1
    29    17    18 ar
    30    21    19 2
    31    21    29 1
    32    11    12 1
    33    13    18 ar
    34    13    12 1
    35    19    20 1
    36    63    29 1
    37    29    28 1
    38    20    28 2
    39     4    33 1
    40     4    34 1
    41     5    35 1
    42     5    36 1
    43     5    37 1
    44     6    38 1
    45     7    39 1
    46     7    40 1
    47     8    41 1
    48     8    42 1
    49     9    43 1
    50     9    44 1
    51    10    45 1
    52    10    46 1
    53    11    47 1
    54    11    48 1
    55    12    49 1
    56    12    50 1
    57    15    51 1
    58    16    52 1
    59    18    53 1
    60    20    54 1
    61    21    55 1
    62    63    56 1
    63    63    57 1
    64    63    58 1
    65    22    59 1
    66    22    60 1
    67    23    61 1
    68    23    62 1
@<TRIPOS>SUBSTRUCTURE
     1 9U7         1 TEMP              0 ****  ****    0 ROOT
