@<TRIPOS>MOLECULE
molecule
   88    91     1     0     0
SMALL
bcc


@<TRIPOS>ATOM
      1 C3           0.0000     0.0000     0.0000 c3         1 9U8      -0.113700
      2 C31          2.3910    -5.0850    12.1850 ca         1 9U8      -0.109000
      3 C4           1.5300     0.0000     0.0000 c3         1 9U8      -0.089900
      4 C5           2.0370     0.0000     1.4450 c3         1 9U8       0.113500
      5 O1           0.2830     0.0580    -2.3380 o          1 9U8      -0.545000
      6 N2           2.3340    -6.1850     5.2750 ns         1 9U8      -0.579900
      7 C           -3.7620     0.0770    -3.1380 c3         1 9U8      -0.096100
      8 O           -1.8220     0.0410    -1.6660 os         1 9U8      -0.434900
      9 C2          -0.5020     0.0350    -1.4210 c          1 9U8       0.633100
     10 C7          -0.5110    -1.2670     0.6900 c3         1 9U8      -0.089900
     11 C6          -0.0280    -1.2820     2.1440 c3         1 9U8       0.113500
     12 N            1.4340    -1.1350     2.1570 n          1 9U8      -0.510800
     13 C8           2.2080    -2.0260     2.8100 c          1 9U8       0.790100
     14 O2           3.4180    -1.9490     2.7350 o          1 9U8      -0.650100
     15 N1           1.6380    -3.0010     3.5450 ns         1 9U8      -0.594900
     16 C9           2.4750    -3.8970     4.3480 c3         1 9U8       0.064700
     17 C10          2.7650    -3.2470     5.7010 c3         1 9U8      -0.045100
     18 C11          3.5930    -2.0050     5.4960 ca         1 9U8      -0.082300
     19 C12          4.9740    -2.0880     5.4940 ca         1 9U8      -0.100500
     20 C13          5.7360    -0.9520     5.3010 ca         1 9U8      -0.143500
     21 C14          5.1140     0.2730     5.1070 ca         1 9U8       0.110100
     22 O3           5.8610     1.3910     4.9160 oh         1 9U8      -0.522100
     23 C15          3.7300     0.3540     5.1090 ca         1 9U8      -0.143500
     24 C16          2.9720    -0.7850     5.3030 ca         1 9U8      -0.100500
     25 C17          1.7530    -5.2020     4.5610 c          1 9U8       0.650100
     26 O4           0.6480    -5.3680     4.0900 o          1 9U8      -0.613100
     27 C18          1.6320    -7.4540     5.4840 c3         1 9U8       0.121700
     28 C19          1.8820    -8.3760     4.2880 c3         1 9U8      -0.093400
     29 C20          1.2530    -7.7660     3.0330 c3         1 9U8      -0.032100
     30 C21          1.4990    -8.6740     1.8560 ca         1 9U8      -0.083300
     31 C22          0.5880    -9.6690     1.5490 ca         1 9U8      -0.125500
     32 C23          0.8130   -10.5020     0.4690 ca         1 9U8      -0.126000
     33 C24          1.9480   -10.3410    -0.3030 ca         1 9U8      -0.132000
     34 C25          2.8580    -9.3470     0.0050 ca         1 9U8      -0.126000
     35 C26          2.6300    -8.5100     1.0810 ca         1 9U8      -0.125500
     36 C27          2.1510    -8.1210     6.7590 c3         1 9U8      -0.074400
     37 C28          1.7910    -7.2570     7.9690 c3         1 9U8      -0.208600
     38 S            2.4070    -8.0480     9.4810 sy         1 9U8       1.125900
     39 O5           1.6870    -9.2440     9.7470 o          1 9U8      -0.601800
     40 O6           3.8270    -8.0260     9.5140 o          1 9U8      -0.601800
     41 C29          1.9260    -6.9540    10.7760 ca         1 9U8       0.205200
     42 N3           0.7560    -7.1140    11.3630 nb         1 9U8      -0.599000
     43 C33          0.3540    -6.3200    12.3370 ca         1 9U8       0.399200
     44 C32          1.1540    -5.2830    12.7780 ca         1 9U8      -0.202300
     45 C30          2.7780    -5.9390    11.1650 ca         1 9U8      -0.166300
     46 H1          -0.3590     0.8700     0.5360 hc         1 9U8       0.075700
     47 H3           1.8900     0.8860    -0.5080 hc         1 9U8       0.066700
     48 H4           1.8900    -0.8860    -0.5080 hc         1 9U8       0.066700
     49 H5           3.1160    -0.1000     1.4500 h1         1 9U8       0.057200
     50 H6           1.7500     0.9250     1.9290 h1         1 9U8       0.057200
     51 H7           3.2570    -6.0590     5.6420 hn         1 9U8       0.317500
     52 H8          -4.1510     0.9220    -2.5830 hc         1 9U8       0.047367
     53 H9          -4.0690     0.1510    -4.1740 hc         1 9U8       0.047367
     54 H10         -4.1460    -0.8420    -2.7120 hc         1 9U8       0.047367
     55 H11         -1.8470     0.9720    -3.5270 h1         1 9U8       0.049700
     56 H12         -1.8460    -0.7970    -3.5710 h1         1 9U8       0.049700
     57 H13         -1.5940    -1.2760     0.6710 hc         1 9U8       0.066700
     58 H14         -0.1280    -2.1380     0.1740 hc         1 9U8       0.066700
     59 H15         -0.4790    -0.4590     2.6850 h1         1 9U8       0.057200
     60 H16         -0.3020    -2.2220     2.6070 h1         1 9U8       0.057200
     61 H17          0.6460    -3.1330     3.5190 hn         1 9U8       0.332500
     62 H18          3.4080    -4.0810     3.8280 h1         1 9U8       0.102700
     63 H19          1.8320    -2.9820     6.1830 hc         1 9U8       0.050700
     64 H20          3.3100    -3.9440     6.3270 hc         1 9U8       0.050700
     65 H21          5.4580    -3.0450     5.6460 ha         1 9U8       0.127000
     66 H22          6.8170    -1.0190     5.3000 ha         1 9U8       0.137000
     67 H23          6.0750     1.7730     5.7510 ho         1 9U8       0.415000
     68 H24          3.2430     1.3100     4.9580 ha         1 9U8       0.137000
     69 H25          1.8900    -0.7220     5.3040 ha         1 9U8       0.127000
     70 H26          0.5700    -7.2670     5.5800 h1         1 9U8       0.085700
     71 H27          2.9480    -8.4920     4.1380 hc         1 9U8       0.052200
     72 H28          1.4370    -9.3450     4.4800 hc         1 9U8       0.052200
     73 H29          1.6980    -6.7980     2.8410 hc         1 9U8       0.062200
     74 H30          0.1860    -7.6510     3.1840 hc         1 9U8       0.062200
     75 H31         -0.3020    -9.7940     2.1540 ha         1 9U8       0.129000
     76 H32          0.1000   -11.2800     0.2280 ha         1 9U8       0.128500
     77 H33          2.1260   -10.9960    -1.1480 ha         1 9U8       0.128000
     78 H34          3.7470    -9.2200    -0.6010 ha         1 9U8       0.128500
     79 H35          3.3440    -7.7310     1.3220 ha         1 9U8       0.129000
     80 H36          1.6970    -9.0990     6.8650 hc         1 9U8       0.066700
     81 H37          3.2270    -8.2280     6.6980 hc         1 9U8       0.066700
     82 H38          2.2450    -6.2790     7.8630 h1         1 9U8       0.103200
     83 H39          0.7150    -7.1510     8.0300 h1         1 9U8       0.103200
     84 H40         -0.6140    -6.4830    12.7950 h4         1 9U8       0.034100
     85 H41          0.8190    -4.6340    13.5780 ha         1 9U8       0.144000
     86 H42          3.7390    -5.8130    10.6790 ha         1 9U8       0.159000
     87 H2           3.0390    -4.2800    12.5110 ha         1 9U8       0.146000
     88 C1          -2.2340     0.0750    -3.0580 c3         1 9U8       0.145400
@<TRIPOS>BOND
     1     7    88 1
     2    88     8 1
     3     8     9 1
     4     9     1 1
     5     9     5 2
     6     1     3 1
     7     1    10 1
     8     3     4 1
     9     4    12 1
    10    10    11 1
    11    11    12 1
    12    12    13 1
    13    33    34 ar
    14    33    32 ar
    15    34    35 ar
    16    32    31 ar
    17    13    14 2
    18    13    15 1
    19    35    30 ar
    20    31    30 ar
    21    30    29 1
    22    15    16 1
    23    22    21 1
    24    20    21 ar
    25    20    19 ar
    26    29    28 1
    27    21    23 ar
    28    16    25 1
    29    16    17 1
    30    19    18 ar
    31    23    24 ar
    32    18    24 ar
    33    18    17 1
    34     2    44 ar
    35     2    45 ar
    36    25     6 1
    37    25    26 2
    38    28    27 1
    39     6    27 1
    40    44    43 ar
    41    45    41 ar
    42    27    36 1
    43    43    42 ar
    44    41    42 ar
    45    41    38 1
    46    37    36 1
    47    37    38 1
    48    38    40 2
    49    38    39 2
    50     1    46 1
    51     2    87 1
    52     3    47 1
    53     3    48 1
    54     4    49 1
    55     4    50 1
    56     6    51 1
    57     7    52 1
    58     7    53 1
    59     7    54 1
    60    88    55 1
    61    88    56 1
    62    10    57 1
    63    10    58 1
    64    11    59 1
    65    11    60 1
    66    15    61 1
    67    16    62 1
    68    17    63 1
    69    17    64 1
    70    19    65 1
    71    20    66 1
    72    22    67 1
    73    23    68 1
    74    24    69 1
    75    27    70 1
    76    28    71 1
    77    28    72 1
    78    29    73 1
    79    29    74 1
    80    31    75 1
    81    32    76 1
    82    33    77 1
    83    34    78 1
    84    35    79 1
    85    36    80 1
    86    36    81 1
    87    37    82 1
    88    37    83 1
    89    43    84 1
    90    44    85 1
    91    45    86 1
@<TRIPOS>SUBSTRUCTURE
     1 9U8         1 TEMP              0 ****  ****    0 ROOT
