@<TRIPOS>MOLECULE
9U8
   88    91     1     0     0
SMALL
bcc


@<TRIPOS>ATOM
      1 C3           0.0000     0.0000     0.0000 c3         1 9U8      -0.095700
      2 C31          2.3910    -5.0850    12.1850 ca         1 9U8      -0.096000
      3 C4           1.5300     0.0000     0.0000 c3         1 9U8      -0.035900
      4 C5           2.0370     0.0000     1.4450 c3         1 9U8       0.056000
      5 O1           0.2830     0.0580    -2.3380 o          1 9U8      -0.580000
      6 N2           2.3340    -6.1850     5.2750 ns         1 9U8      -0.186900
      7 C           -3.7620     0.0770    -3.1380 c3         1 9U8      -0.003100
      8 O           -1.8220     0.0410    -1.6660 os         1 9U8      -0.417900
      9 C2          -0.5020     0.0350    -1.4210 c          1 9U8       0.697100
     10 C7          -0.5110    -1.2670     0.6900 c3         1 9U8      -0.035900
     11 C6          -0.0280    -1.2820     2.1440 c3         1 9U8       0.056000
     12 N            1.4340    -1.1350     2.1570 n          1 9U8      -0.181800
     13 C8           2.2080    -2.0260     2.8100 c          1 9U8       0.601100
     14 O2           3.4180    -1.9490     2.7350 o          1 9U8      -0.699100
     15 N1           1.6380    -3.0010     3.5450 ns         1 9U8      -0.219900
     16 C9           2.4750    -3.8970     4.3480 c3         1 9U8      -0.037300
     17 C10          2.7650    -3.2470     5.7010 c3         1 9U8       0.023900
     18 C11          3.5930    -2.0050     5.4960 ca         1 9U8      -0.099300
     19 C12          4.9740    -2.0880     5.4940 ca         1 9U8      -0.068500
     20 C13          5.7360    -0.9520     5.3010 ca         1 9U8      -0.127500
     21 C14          5.1140     0.2730     5.1070 ca         1 9U8       0.130100
     22 O3           5.8610     1.3910     4.9160 oh         1 9U8      -0.500100
     23 C15          3.7300     0.3540     5.1090 ca         1 9U8      -0.127500
     24 C16          2.9720    -0.7850     5.3030 ca         1 9U8      -0.068500
     25 C17          1.7530    -5.2020     4.5610 c          1 9U8       0.568100
     26 O4           0.6480    -5.3680     4.0900 o          1 9U8      -0.654100
     27 C18          1.6320    -7.4540     5.4840 c3         1 9U8       0.012700
     28 C19          1.8820    -8.3760     4.2880 c3         1 9U8      -0.038400
     29 C20          1.2530    -7.7660     3.0330 c3         1 9U8       0.013900
     30 C21          1.4990    -8.6740     1.8560 ca         1 9U8      -0.088300
     31 C22          0.5880    -9.6690     1.5490 ca         1 9U8      -0.098500
     32 C23          0.8130   -10.5020     0.4690 ca         1 9U8      -0.098500
     33 C24          1.9480   -10.3410    -0.3030 ca         1 9U8      -0.105000
     34 C25          2.8580    -9.3470     0.0050 ca         1 9U8      -0.098500
     35 C26          2.6300    -8.5100     1.0810 ca         1 9U8      -0.098500
     36 C27          2.1510    -8.1210     6.7590 c3         1 9U8      -0.008400
     37 C28          1.7910    -7.2570     7.9690 c3         1 9U8      -0.007600
     38 S            2.4070    -8.0480     9.4810 sy         1 9U8       0.805900
     39 O5           1.6870    -9.2440     9.7470 o          1 9U8      -0.573300
     40 O6           3.8270    -8.0260     9.5140 o          1 9U8      -0.573300
     41 C29          1.9260    -6.9540    10.7760 ca         1 9U8       0.293200
     42 N3           0.7560    -7.1140    11.3630 nb         1 9U8      -0.477000
     43 C33          0.3540    -6.3200    12.3370 ca         1 9U8       0.372200
     44 C32          1.1540    -5.2830    12.7780 ca         1 9U8      -0.167300
     45 C30          2.7780    -5.9390    11.1650 ca         1 9U8      -0.126300
     46 H1          -0.3590     0.8700     0.5360 hc         1 9U8       0.046700
     47 H3           1.8900     0.8860    -0.5080 hc         1 9U8       0.035700
     48 H4           1.8900    -0.8860    -0.5080 hc         1 9U8       0.035700
     49 H5           3.1160    -0.1000     1.4500 h1         1 9U8       0.030450
     50 H6           1.7500     0.9250     1.9290 h1         1 9U8       0.030450
     51 H7           3.2570    -6.0590     5.6420 hn         1 9U8       0.181500
     52 H8          -4.1510     0.9220    -2.5830 hc         1 9U8       0.010700
     53 H9          -4.0690     0.1510    -4.1740 hc         1 9U8       0.010700
     54 H10         -4.1460    -0.8420    -2.7120 hc         1 9U8       0.010700
     55 H11         -1.8470     0.9720    -3.5270 h1         1 9U8       0.009700
     56 H12         -1.8460    -0.7970    -3.5710 h1         1 9U8       0.009700
     57 H13         -1.5940    -1.2760     0.6710 hc         1 9U8       0.035700
     58 H14         -0.1280    -2.1380     0.1740 hc         1 9U8       0.035700
     59 H15         -0.4790    -0.4590     2.6850 h1         1 9U8       0.030450
     60 H16         -0.3020    -2.2220     2.6070 h1         1 9U8       0.030450
     61 H17          0.6460    -3.1330     3.5190 hn         1 9U8       0.203500
     62 H18          3.4080    -4.0810     3.8280 h1         1 9U8       0.075700
     63 H19          1.8320    -2.9820     6.1830 hc         1 9U8       0.018200
     64 H20          3.3100    -3.9440     6.3270 hc         1 9U8       0.018200
     65 H21          5.4580    -3.0450     5.6460 ha         1 9U8       0.099000
     66 H22          6.8170    -1.0190     5.3000 ha         1 9U8       0.110500
     67 H23          6.0750     1.7730     5.7510 ho         1 9U8       0.398000
     68 H24          3.2430     1.3100     4.9580 ha         1 9U8       0.110500
     69 H25          1.8900    -0.7220     5.3040 ha         1 9U8       0.099000
     70 H26          0.5700    -7.2670     5.5800 h1         1 9U8       0.061700
     71 H27          2.9480    -8.4920     4.1380 hc         1 9U8       0.024200
     72 H28          1.4370    -9.3450     4.4800 hc         1 9U8       0.024200
     73 H29          1.6980    -6.7980     2.8410 hc         1 9U8       0.036700
     74 H30          0.1860    -7.6510     3.1840 hc         1 9U8       0.036700
     75 H31         -0.3020    -9.7940     2.1540 ha         1 9U8       0.104500
     76 H32          0.1000   -11.2800     0.2280 ha         1 9U8       0.101500
     77 H33          2.1260   -10.9960    -1.1480 ha         1 9U8       0.102000
     78 H34          3.7470    -9.2200    -0.6010 ha         1 9U8       0.101500
     79 H35          3.3440    -7.7310     1.3220 ha         1 9U8       0.104500
     80 H36          1.6970    -9.0990     6.8650 hc         1 9U8       0.039200
     81 H37          3.2270    -8.2280     6.6980 hc         1 9U8       0.039200
     82 H38          2.2450    -6.2790     7.8630 h1         1 9U8       0.068200
     83 H39          0.7150    -7.1510     8.0300 h1         1 9U8       0.068200
     84 H40         -0.6140    -6.4830    12.7950 h4         1 9U8      -0.012900
     85 H41          0.8190    -4.6340    13.5780 ha         1 9U8       0.114000
     86 H42          3.7390    -5.8130    10.6790 ha         1 9U8       0.133000
     87 H2           3.0390    -4.2800    12.5110 ha         1 9U8       0.115000
     88 C1          -2.2340     0.0750    -3.0580 c3         1 9U8       0.225400
@<TRIPOS>BOND
     1     1     3 1   
     2     1     9 1   
     3     1    10 1   
     4     1    46 1   
     5     2    44 ar  
     6     2    45 ar  
     7     2    87 1   
     8     3     4 1   
     9     3    47 1   
    10     3    48 1   
    11     4    12 1   
    12     4    49 1   
    13     4    50 1   
    14     5     9 2   
    15     6    25 1   
    16     6    27 1   
    17     6    51 1   
    18     7    52 1   
    19     7    53 1   
    20     7    54 1   
    21     7    88 1   
    22     8     9 1   
    23     8    88 1   
    24    10    11 1   
    25    10    57 1   
    26    10    58 1   
    27    11    12 1   
    28    11    59 1   
    29    11    60 1   
    30    12    13 1   
    31    13    14 2   
    32    13    15 1   
    33    15    16 1   
    34    15    61 1   
    35    16    17 1   
    36    16    25 1   
    37    16    62 1   
    38    17    18 1   
    39    17    63 1   
    40    17    64 1   
    41    18    19 ar  
    42    18    24 ar  
    43    19    20 ar  
    44    19    65 1   
    45    20    21 ar  
    46    20    66 1   
    47    21    22 1   
    48    21    23 ar  
    49    22    67 1   
    50    23    24 ar  
    51    23    68 1   
    52    24    69 1   
    53    25    26 2   
    54    27    28 1   
    55    27    36 1   
    56    27    70 1   
    57    28    29 1   
    58    28    71 1   
    59    28    72 1   
    60    29    30 1   
    61    29    73 1   
    62    29    74 1   
    63    30    31 ar  
    64    30    35 ar  
    65    31    32 ar  
    66    31    75 1   
    67    32    33 ar  
    68    32    76 1   
    69    33    34 ar  
    70    33    77 1   
    71    34    35 ar  
    72    34    78 1   
    73    35    79 1   
    74    36    37 1   
    75    36    80 1   
    76    36    81 1   
    77    37    38 1   
    78    37    82 1   
    79    37    83 1   
    80    38    39 2   
    81    38    40 2   
    82    38    41 1   
    83    41    42 ar  
    84    41    45 ar  
    85    42    43 ar  
    86    43    44 ar  
    87    43    84 1   
    88    44    85 1   
    89    45    86 1   
    90    55    88 1   
    91    56    88 1   
@<TRIPOS>SUBSTRUCTURE
     1 9U8         1 TEMP              0 ****  ****    0 ROOT
