@<TRIPOS>MOLECULE
9UA
   66    71     1     0     0
SMALL
bcc


@<TRIPOS>ATOM
      1 C14          0.0000     0.0000     0.0000 c3         1 9UA       0.212400
      2 C5           5.7570     0.5870     3.9080 c3         1 9UA       0.054000
      3 C6           4.5930     0.7800     2.9270 c3         1 9UA       0.043900
      4 C7           4.1990    -0.5650     2.3700 cc         1 9UA      -0.227600
      5 C8           4.9810    -1.6730     2.4120 cd         1 9UA      -0.346600
      6 C9           4.2870    -2.7180     1.7960 cd         1 9UA       0.493200
      7 C12          1.9200     0.0000     1.5010 c3         1 9UA      -0.089000
      8 C13          1.5410     0.0000     0.0000 c3         1 9UA      -0.074400
      9 C16          0.6260    -0.5390     2.1630 c3         1 9UA       0.200400
     10 C18          4.5760    -5.0230     2.6970 c3         1 9UA       0.177800
     11 C19          5.8990    -5.7840     2.8490 c3         1 9UA      -0.047400
     12 C2           7.9900     0.1210     3.0130 c          1 9UA       0.593100
     13 C20          6.1880    -6.5360     1.5500 c3         1 9UA       0.043900
     14 C21          6.0900    -5.6060     0.3690 ca         1 9UA      -0.138300
     15 C22          5.3840    -4.4140     0.4420 ca         1 9UA       0.066600
     16 C23          5.3040    -3.5780    -0.6680 ca         1 9UA      -0.133000
     17 C24          5.9270    -3.9300    -1.8470 ca         1 9UA      -0.143300
     18 C25          6.6380    -5.1250    -1.9230 ca         1 9UA       0.011000
     19 C26          6.7160    -5.9600    -0.8130 ca         1 9UA      -0.065000
     20 C27          7.3130    -5.5080    -3.1900 cc         1 9UA      -0.268300
     21 C28          8.2550    -4.7360    -3.8980 cc         1 9UA       0.397200
     22 C31          7.1370    -6.6740    -3.8770 cd         1 9UA      -0.233300
     23 C33          5.8370    -3.0240    -3.0470 c3         1 9UA       0.468200
     24 C36          6.3560    -1.7100     3.0360 c3         1 9UA       0.157300
     25 F34          5.6830    -3.7960    -4.2040 f          1 9UA      -0.225300
     26 F35          4.7380    -2.1700    -2.9070 f          1 9UA      -0.225300
     27 N10          3.1240    -2.2520     1.4000 nc         1 9UA      -0.644800
     28 N11          3.0500    -0.8970     1.7550 na         1 9UA       0.535400
     29 N17          4.7500    -4.0290     1.6290 nh         1 9UA      -0.310700
     30 N29          8.6180    -5.4100    -4.9570 nd         1 9UA      -0.645800
     31 N30          7.9310    -6.6290    -4.9660 na         1 9UA       0.493400
     32 N4           6.7500    -0.3160     3.3080 n          1 9UA      -0.168800
     33 O15         -0.4280     0.0500     1.3710 os         1 9UA      -0.398600
     34 O3           8.3280     1.2430     3.3260 o          1 9UA      -0.649100
     35 H1          -0.3670    -0.9060    -0.4670 h1         1 9UA       0.012700
     36 H2          -0.3670     0.8700    -0.5310 h1         1 9UA       0.012700
     37 H3           6.2270     1.5500     4.0670 h1         1 9UA       0.043700
     38 H4           5.3690     0.1170     4.8040 h1         1 9UA       0.043700
     39 H5           3.7490     1.1800     3.4760 hc         1 9UA       0.034200
     40 H6           4.9380     1.3990     2.1080 hc         1 9UA       0.034200
     41 H7           2.1330     1.0060     1.8420 h1         1 9UA       0.060700
     42 H8           1.9190    -0.8920    -0.4850 hc         1 9UA       0.041200
     43 H9           1.9190     0.8920    -0.4850 hc         1 9UA       0.041200
     44 H10          8.6200    -0.9360     1.2740 hc         1 9UA       0.026367
     45 H11          9.0040    -1.7400     2.8030 hc         1 9UA       0.026367
     46 H12          9.9400    -0.3310     2.2850 hc         1 9UA       0.026367
     47 H13          0.5900    -1.6200     2.1000 h1         1 9UA       0.025700
     48 H14          0.5590    -0.2070     3.1920 h1         1 9UA       0.025700
     49 H15          4.3340    -4.5230     3.6270 h1         1 9UA       0.022200
     50 H16          3.7860    -5.7140     2.4290 h1         1 9UA       0.022200
     51 H17          5.8190    -6.4910     3.6660 hc         1 9UA       0.021700
     52 H18          6.7000    -5.0820     3.0460 hc         1 9UA       0.021700
     53 H19          7.1960    -6.9300     1.5960 hc         1 9UA       0.023700
     54 H20          5.4510    -7.3210     1.4340 hc         1 9UA       0.023700
     55 H21          4.7510    -2.6490    -0.6060 ha         1 9UA       0.134000
     56 H22          7.2690    -6.8890    -0.8740 ha         1 9UA       0.110000
     57 H23          8.6140    -3.7540    -3.6150 h4         1 9UA       0.002100
     58 H24          6.4060    -7.4410    -3.6530 h4         1 9UA       0.149000
     59 H25          7.1160    -7.7750    -6.5160 h1         1 9UA       0.021367
     60 H26          8.8400    -7.4120    -6.6800 h1         1 9UA       0.021367
     61 H27          8.2980    -8.6170    -5.5040 h1         1 9UA       0.021367
     62 H28          6.7440    -2.4360    -3.1240 h2         1 9UA       0.032700
     63 H29          6.3240    -2.2700     3.9620 h1         1 9UA       0.028700
     64 H30          7.0590    -2.1630     2.3480 h1         1 9UA       0.028700
     65 C32          8.0540    -7.6770    -5.9830 c3         1 9UA       0.023600
     66 C1           8.9570    -0.7850     2.2930 c3         1 9UA      -0.074100
@<TRIPOS>BOND
     1     1     8 1   
     2     1    33 1   
     3     1    35 1   
     4     1    36 1   
     5     2     3 1   
     6     2    32 1   
     7     2    37 1   
     8     2    38 1   
     9     3     4 1   
    10     3    39 1   
    11     3    40 1   
    12     4     5 2   
    13     4    28 1   
    14     5     6 1   
    15     5    24 1   
    16     6    27 2   
    17     6    29 1   
    18     7     8 1   
    19     7     9 1   
    20     7    28 1   
    21     7    41 1   
    22     8    42 1   
    23     8    43 1   
    24     9    33 1   
    25     9    47 1   
    26     9    48 1   
    27    10    11 1   
    28    10    29 1   
    29    10    49 1   
    30    10    50 1   
    31    11    13 1   
    32    11    51 1   
    33    11    52 1   
    34    12    32 1   
    35    12    34 2   
    36    12    66 1   
    37    13    14 1   
    38    13    53 1   
    39    13    54 1   
    40    14    15 ar  
    41    14    19 ar  
    42    15    16 ar  
    43    15    29 1   
    44    16    17 ar  
    45    16    55 1   
    46    17    18 ar  
    47    17    23 1   
    48    18    19 ar  
    49    18    20 1   
    50    19    56 1   
    51    20    21 1   
    52    20    22 2   
    53    21    30 2   
    54    21    57 1   
    55    22    31 1   
    56    22    58 1   
    57    23    25 1   
    58    23    26 1   
    59    23    62 1   
    60    24    32 1   
    61    24    63 1   
    62    24    64 1   
    63    27    28 1   
    64    30    31 1   
    65    31    65 1   
    66    44    66 1   
    67    45    66 1   
    68    46    66 1   
    69    59    65 1   
    70    60    65 1   
    71    61    65 1   
@<TRIPOS>SUBSTRUCTURE
     1 9UA         1 TEMP              0 ****  ****    0 ROOT
