@<TRIPOS>MOLECULE
9UD
   69    74     1     0     0
SMALL
bcc


@<TRIPOS>ATOM
      1 C4           0.0000     0.0000     0.0000 ca         1 9UD       0.010000
      2 C5           1.3920     0.0000     0.0000 ca         1 9UD      -0.066000
      3 C6           2.0880     0.0000     1.1940 ca         1 9UD      -0.137300
      4 N1          -2.1320     0.6190    -2.8750 nc         1 9UD      -0.644800
      5 C7           1.3930     0.0040     2.3950 ca         1 9UD       0.067600
      6 C8           0.0010     0.0030     2.3980 ca         1 9UD      -0.133000
      7 N2           2.0760     0.0110     3.6180 nh         1 9UD      -0.308700
      8 C9          -0.6940     0.0010     1.2080 ca         1 9UD      -0.142300
      9 C10         -2.2010    -0.0020     1.2140 c3         1 9UD       0.467200
     10 C11          3.5130    -0.2890     3.6310 c3         1 9UD       0.177800
     11 C12          4.1650     0.4920     2.4830 c3         1 9UD      -0.045400
     12 N3           0.8830    -0.5810     5.6390 nc         1 9UD      -0.639800
     13 C13          3.5950    -0.0100     1.1570 c3         1 9UD       0.043900
     14 C14          1.3980     0.2990     4.8090 cd         1 9UD       0.488200
     15 C15         -0.3900    -0.4870     7.8520 c3         1 9UD      -0.042000
     16 N4           0.2930     0.1150     6.7040 na         1 9UD       0.531400
     17 N           -1.4680    -0.5460    -3.2770 na         1 9UD       0.491400
     18 C           -1.6570    -1.2490    -4.5470 c3         1 9UD       0.023600
     19 O           -1.2800    -2.8140     9.2350 os         1 9UD      -0.402600
     20 C1          -0.6210    -0.9080    -2.2910 cc         1 9UD      -0.230300
     21 C16          0.5780    -1.4020     8.6060 c3         1 9UD      -0.082400
     22 C17         -0.1670    -2.0850     9.7560 c3         1 9UD       0.219900
     23 C18         -2.2440    -2.0020     8.5600 c3         1 9UD       0.219900
     24 C19         -1.5820    -1.3160     7.3620 c3         1 9UD      -0.082400
     25 C2          -0.7440     0.0040    -1.2850 cd         1 9UD      -0.269300
     26 C20          0.4660     1.4310     6.4890 cc         1 9UD      -0.226600
     27 C21          1.1480     1.5740     5.3250 cd         1 9UD      -0.345600
     28 C22          1.5470     2.9080     4.7410 c3         1 9UD       0.159300
     29 C23          0.7850     3.8370     6.9660 c3         1 9UD       0.058000
     30 C24          0.0000     2.5770     7.3510 c3         1 9UD       0.044900
     31 C26          0.3900     5.1390     3.3780 c3         1 9UD      -0.074100
     32 C3          -1.7050     0.9530    -1.6870 cd         1 9UD       0.397200
     33 F           -2.6700    -0.8630     0.2160 f          1 9UD      -0.224800
     34 F1          -2.6610    -0.4380     2.4610 f          1 9UD      -0.224800
     35 N5           0.8310     3.9480     5.5010 n          1 9UD      -0.170800
     36 O1          -0.4310     5.7730     5.4980 o          1 9UD      -0.649100
     37 H1           1.9320    -0.0000    -0.9390 ha         1 9UD       0.110000
     38 H2          -0.5370     0.0030     3.3380 ha         1 9UD       0.134000
     39 H3          -2.5650     1.0010     1.0250 h2         1 9UD       0.032700
     40 H4           3.6660    -1.3520     3.4840 h1         1 9UD       0.022200
     41 H5           3.9430     0.0220     4.5750 h1         1 9UD       0.022200
     42 H6           3.9480     1.5470     2.5940 hc         1 9UD       0.021200
     43 H7           5.2370     0.3320     2.4990 hc         1 9UD       0.021200
     44 H8           3.9360     0.6340     0.3560 hc         1 9UD       0.021700
     45 H9           3.9400    -1.0220     0.9800 hc         1 9UD       0.021700
     46 H10         -0.7420     0.2910     8.5180 h1         1 9UD       0.046700
     47 H11         -2.4180    -0.7430    -5.1300 h1         1 9UD       0.021367
     48 H12         -1.9700    -2.2680    -4.3530 h1         1 9UD       0.021367
     49 H13         -0.7250    -1.2560    -5.0990 h1         1 9UD       0.021367
     50 H14          0.0370    -1.7690    -2.2980 h4         1 9UD       0.148000
     51 H15          0.9650    -2.1550     7.9300 hc         1 9UD       0.041200
     52 H16          1.3950    -0.8130     9.0050 hc         1 9UD       0.041200
     53 H17          0.5040    -2.7670    10.2640 h1         1 9UD       0.010200
     54 H18         -0.5220    -1.3340    10.4510 h1         1 9UD       0.010200
     55 H19         -3.0590    -2.6260     8.2120 h1         1 9UD       0.010200
     56 H20         -2.6220    -1.2500     9.2420 h1         1 9UD       0.010200
     57 H21         -1.2360    -2.0660     6.6620 hc         1 9UD       0.041200
     58 H22         -2.3000    -0.6640     6.8780 hc         1 9UD       0.041200
     59 H23          2.6160     3.0490     4.8420 h1         1 9UD       0.027700
     60 H24          1.2610     2.9530     3.6970 h1         1 9UD       0.027700
     61 H25          1.8000     3.7280     7.3290 h1         1 9UD       0.042200
     62 H26          0.2540     4.6980     7.3550 h1         1 9UD       0.042200
     63 H27         -1.0580     2.7460     7.1890 hc         1 9UD       0.028700
     64 H28          0.1810     2.3420     8.3930 hc         1 9UD       0.028700
     65 H29          0.0750     6.1340     3.0880 hc         1 9UD       0.026033
     66 H30          1.4270     4.9930     3.1000 hc         1 9UD       0.026033
     67 H31         -0.2260     4.4040     2.8750 hc         1 9UD       0.026033
     68 H32         -2.0320     1.8100    -1.1110 h4         1 9UD       0.002100
     69 C25          0.2320     4.9780     4.8690 c          1 9UD       0.594100
@<TRIPOS>BOND
     1     1     2 ar  
     2     1     8 ar  
     3     1    25 1   
     4     2     3 ar  
     5     2    37 1   
     6     3     5 ar  
     7     3    13 1   
     8     4    17 1   
     9     4    32 2   
    10     5     6 ar  
    11     5     7 1   
    12     6     8 ar  
    13     6    38 1   
    14     7    10 1   
    15     7    14 1   
    16     8     9 1   
    17     9    33 1   
    18     9    34 1   
    19     9    39 1   
    20    10    11 1   
    21    10    40 1   
    22    10    41 1   
    23    11    13 1   
    24    11    42 1   
    25    11    43 1   
    26    12    14 2   
    27    12    16 1   
    28    13    44 1   
    29    13    45 1   
    30    14    27 1   
    31    15    16 1   
    32    15    21 1   
    33    15    24 1   
    34    15    46 1   
    35    16    26 1   
    36    17    18 1   
    37    17    20 1   
    38    18    47 1   
    39    18    48 1   
    40    18    49 1   
    41    19    22 1   
    42    19    23 1   
    43    20    25 2   
    44    20    50 1   
    45    21    22 1   
    46    21    51 1   
    47    21    52 1   
    48    22    53 1   
    49    22    54 1   
    50    23    24 1   
    51    23    55 1   
    52    23    56 1   
    53    24    57 1   
    54    24    58 1   
    55    25    32 1   
    56    26    27 2   
    57    26    30 1   
    58    27    28 1   
    59    28    35 1   
    60    28    59 1   
    61    28    60 1   
    62    29    30 1   
    63    29    35 1   
    64    29    61 1   
    65    29    62 1   
    66    30    63 1   
    67    30    64 1   
    68    31    65 1   
    69    31    66 1   
    70    31    67 1   
    71    31    69 1   
    72    32    68 1   
    73    35    69 1   
    74    36    69 2   
@<TRIPOS>SUBSTRUCTURE
     1 9UD         1 TEMP              0 ****  ****    0 ROOT
