@<TRIPOS>MOLECULE
9UG
   32    33     1     0     0
SMALL
bcc


@<TRIPOS>ATOM
      1 C4           0.0000     0.0000     0.0000 ca         1 9UG      -0.114000
      2 C5           1.3860     0.0000     0.0000 ca         1 9UG      -0.139400
      3 C6           2.0860     0.0000     1.2030 ca         1 9UG       0.111100
      4 C7           1.3870    -0.0060     2.4010 ca         1 9UG      -0.124000
      5 C9           4.1260    -0.4200     0.0370 c3         1 9UG       0.167100
      6 C10          3.5300     0.3100    -1.1730 c3         1 9UG      -0.013000
      7 C3          -0.6880    -0.0040     1.1990 ca         1 9UG      -0.114000
      8 C15          1.5310    -0.7610    -4.7690 c3         1 9UG       0.102300
      9 C16          5.6150    -0.0870     0.1550 c3         1 9UG       0.004900
     10 C2           0.0040    -0.0080     2.3950 ca         1 9UG      -0.079300
     11 N11          2.0910    -0.0020    -1.2170 n          1 9UG      -0.004000
     12 N14          2.1850    -0.3560    -3.5220 ns         1 9UG      -0.231900
     13 O13          0.2700    -0.4610    -2.4030 o          1 9UG      -0.690100
     14 O8           3.4440     0.0090     1.2180 os         1 9UG      -0.299900
     15 H1          -0.5430     0.0030    -0.9370 ha         1 9UG       0.187000
     16 H2           1.9240    -0.0090     3.3410 ha         1 9UG       0.117000
     17 H3           3.9970    -1.4890    -0.0860 h1         1 9UG       0.022700
     18 H4           4.0000    -0.0570    -2.0770 h1         1 9UG       0.035700
     19 H5           3.6580     1.3780    -1.0430 h1         1 9UG       0.035700
     20 H6          -1.7710    -0.0060     1.2000 ha         1 9UG       0.109000
     21 H7          -0.3790     0.7790     4.3360 hc         1 9UG       0.006033
     22 H8          -1.8060     0.1440     3.5060 hc         1 9UG       0.006033
     23 H9          -0.6140    -0.9690     4.1920 hc         1 9UG       0.006033
     24 H10          0.7080    -0.0880    -4.9800 h1         1 9UG       0.008700
     25 H11          2.2460    -0.7230    -5.5810 h1         1 9UG       0.008700
     26 H12          1.1540    -1.7710    -4.6670 h1         1 9UG       0.008700
     27 H13          6.1480    -0.5150    -0.6850 hc         1 9UG       0.014367
     28 H14          5.7450     0.9880     0.1570 hc         1 9UG       0.014367
     29 H15          6.0050    -0.4990     1.0780 hc         1 9UG       0.014367
     30 H16          3.1510    -0.0950    -3.5270 hn         1 9UG       0.173500
     31 C12          1.4720    -0.2790    -2.3810 c          1 9UG       0.589100
     32 C1          -0.7520    -0.0140     3.6990 c3         1 9UG       0.066200
@<TRIPOS>BOND
     1     1     2 ar  
     2     1     7 ar  
     3     1    15 1   
     4     2     3 ar  
     5     2    11 1   
     6     3     4 ar  
     7     3    14 1   
     8     4    10 ar  
     9     4    16 1   
    10     5     6 1   
    11     5     9 1   
    12     5    14 1   
    13     5    17 1   
    14     6    11 1   
    15     6    18 1   
    16     6    19 1   
    17     7    10 ar  
    18     7    20 1   
    19     8    12 1   
    20     8    24 1   
    21     8    25 1   
    22     8    26 1   
    23     9    27 1   
    24     9    28 1   
    25     9    29 1   
    26    10    32 1   
    27    11    31 1   
    28    12    30 1   
    29    12    31 1   
    30    13    31 2   
    31    21    32 1   
    32    22    32 1   
    33    23    32 1   
@<TRIPOS>SUBSTRUCTURE
     1 9UG         1 TEMP              0 ****  ****    0 ROOT
