@<TRIPOS>MOLECULE
molecule
   29    31     1     0     0
SMALL
bcc


@<TRIPOS>ATOM
      1 C10          0.0000     0.0000     0.0000 ca         1 9UL       0.107400
      2 C11          1.4110     0.0000     0.0000 ca         1 9UL      -0.078800
      3 C12          2.1130     0.0000     1.1980 ca         1 9UL      -0.123000
      4 C13          1.4230    -0.0020     2.3920 ca         1 9UL      -0.130000
      5 C14          0.0350    -0.0030     2.4010 ca         1 9UL      -0.144000
      6 C15         -0.6770     0.0040     1.2250 ca         1 9UL      -0.080000
      7 N02          3.3700     0.1090    -3.2610 nh         1 9UL      -0.673400
      8 C03          4.8210     0.0730    -3.4850 c3         1 9UL       0.210800
      9 C04          5.4580     0.3540    -2.1060 c3         1 9UL      -0.101400
     10 C05          4.3470    -0.1220    -1.1410 c3         1 9UL      -0.067200
     11 C06          3.0760     0.0020    -1.9520 c2         1 9UL       0.252800
     12 C07          1.7980     0.0010    -1.4250 cc         1 9UL      -0.346800
     13 C08          0.5700     0.0010    -2.1350 cc         1 9UL       0.445500
     14 N09         -0.4230    -0.0000    -1.2870 nd         1 9UL      -0.587100
     15 H1           3.1960     0.0010     1.1950 ha         1 9UL       0.114000
     16 H2           1.9680    -0.0070     3.3290 ha         1 9UL       0.123000
     17 H3          -0.4940    -0.0040     3.3470 ha         1 9UL       0.126000
     18 H4          -1.7600     0.0030     1.2460 ha         1 9UL       0.136000
     19 H5           1.8280    -0.6800    -4.4340 h1         1 9UL       0.053033
     20 H6           1.6820     1.0450    -4.0680 h1         1 9UL       0.053033
     21 H7           2.8700     0.4900    -5.2560 h1         1 9UL       0.053033
     22 H8           5.1190    -0.9060    -3.8410 h1         1 9UL       0.054200
     23 H9           5.6500     1.4130    -1.9800 hc         1 9UL       0.064700
     24 H10          4.3030     0.5190    -0.2700 hc         1 9UL       0.081700
     25 H11          0.4850    -0.5410    -3.0700 h4         1 9UL       0.033800
     26 H13          4.5130    -1.1540    -0.8540 hc         1 9UL       0.081700
     27 H14          6.3610    -0.2300    -1.9730 hc         1 9UL       0.064700
     28 H15          5.1090     0.8400    -4.1930 h1         1 9UL       0.054200
     29 C01          2.3730     0.2500    -4.3240 c3         1 9UL       0.224100
@<TRIPOS>BOND
     1     9     8 1
     2     9    10 1
     3     8     7 1
     4    10    11 1
     5     7    29 1
     6     7    11 1
     7    11    12 2
     8    12     2 1
     9    12    13 1
    10     3     2 ar
    11     3     4 ar
    12     2     1 ar
    13    13    14 2
    14     4     5 ar
    15     1    14 1
    16     1     6 ar
    17     5     6 ar
    18     3    15 1
    19     4    16 1
    20     5    17 1
    21     6    18 1
    22    29    19 1
    23    29    20 1
    24    29    21 1
    25     8    22 1
    26     9    23 1
    27    10    24 1
    28    13    25 1
    29    10    26 1
    30     9    27 1
    31     8    28 1
@<TRIPOS>SUBSTRUCTURE
     1 9UL         1 TEMP              0 ****  ****    0 ROOT
