@<TRIPOS>MOLECULE
9UM
   26    27     1     0     0
SMALL
bcc


@<TRIPOS>ATOM
      1 C1           0.0000     0.0000     0.0000 c          1 9UM       0.664700
      2 C2           1.4170     0.0000     0.0000 cc         1 9UM      -0.288400
      3 C3           1.8350     0.0000     1.2800 cd         1 9UM      -0.002200
      4 C4           0.3190     0.0010     3.4070 cc         1 9UM      -0.032200
      5 C5          -1.0270     0.0010     3.4290 cd         1 9UM      -0.254400
      6 C6          -1.4900     0.0090     2.0890 c          1 9UM       0.659700
      7 C7          -1.8920     0.0010     4.6640 c3         1 9UM       0.102100
      8 C8           1.2210    -0.0070     4.6150 c3         1 9UM       0.209200
      9 C9           3.2710     0.0000     1.7380 c3         1 9UM       0.074100
     10 C10          2.3020    -0.0020    -1.2200 c3         1 9UM       0.111100
     11 N1           0.7310     0.0010     2.0970 na         1 9UM      -0.004200
     12 N2          -0.4100     0.0060     1.2830 n          1 9UM      -0.098800
     13 O1          -0.7180    -0.0000    -0.9820 o          1 9UM      -0.595500
     14 O2          -2.6530     0.0110     1.7320 o          1 9UM      -0.593500
     15 Br1          1.7350    -1.8570     5.0360 br         1 9UM      -0.197400
     16 H1          -2.9360     0.0200     4.3740 hc         1 9UM       0.016033
     17 H2          -1.6670     0.8760     5.2620 hc         1 9UM       0.016033
     18 H3          -1.6940    -0.8930     5.2430 hc         1 9UM       0.016033
     19 H4           0.6970     0.4240     5.4600 h1         1 9UM       0.043700
     20 H5           2.1100     0.5760     4.4060 h1         1 9UM       0.043700
     21 H6           3.5000    -0.9480     2.2100 hc         1 9UM       0.023033
     22 H7           3.4230     0.8030     2.4490 hc         1 9UM       0.023033
     23 H8           3.9220     0.1460     0.8850 hc         1 9UM       0.023033
     24 H9           2.9300    -0.8850    -1.2090 hc         1 9UM       0.012700
     25 H10          2.9250     0.8840    -1.2160 hc         1 9UM       0.012700
     26 H11          1.6870    -0.0070    -2.1120 hc         1 9UM       0.012700
@<TRIPOS>BOND
     1     1     2 1   
     2     1    12 1   
     3     1    13 2   
     4     2     3 2   
     5     2    10 1   
     6     3     9 1   
     7     3    11 1   
     8     4     5 2   
     9     4     8 1   
    10     4    11 1   
    11     5     6 1   
    12     5     7 1   
    13     6    12 1   
    14     6    14 2   
    15     7    16 1   
    16     7    17 1   
    17     7    18 1   
    18     8    15 1   
    19     8    19 1   
    20     8    20 1   
    21     9    21 1   
    22     9    22 1   
    23     9    23 1   
    24    10    24 1   
    25    10    25 1   
    26    10    26 1   
    27    11    12 1   
@<TRIPOS>SUBSTRUCTURE
     1 9UM         1 TEMP              0 ****  ****    0 ROOT
