@<TRIPOS>MOLECULE
molecule
   26    27     1     0     0
SMALL
bcc


@<TRIPOS>ATOM
      1 C1           0.0000     0.0000     0.0000 c          1 9UM       0.731700
      2 C2           1.4170     0.0000     0.0000 cc         1 9UM      -0.275400
      3 C3           1.8350     0.0000     1.2800 cd         1 9UM       0.162800
      4 C4           0.3190     0.0010     3.4070 cc         1 9UM       0.146800
      5 C5          -1.0270     0.0010     3.4290 cd         1 9UM      -0.253400
      6 C6          -1.4900     0.0090     2.0890 c          1 9UM       0.729700
      7 C7          -1.8920     0.0010     4.6640 c3         1 9UM      -0.014900
      8 C8           1.2210    -0.0070     4.6150 c3         1 9UM       0.049200
      9 C9           3.2710     0.0000     1.7380 c3         1 9UM      -0.044900
     10 C10          2.3020    -0.0020    -1.2200 c3         1 9UM      -0.008900
     11 N1           0.7310     0.0010     2.0970 na         1 9UM      -0.336200
     12 N2          -0.4100     0.0060     1.2830 n          1 9UM      -0.327800
     13 O1          -0.7180    -0.0000    -0.9820 o          1 9UM      -0.561500
     14 O2          -2.6530     0.0110     1.7320 o          1 9UM      -0.559500
     15 Br1          1.7350    -1.8570     5.0360 br         1 9UM      -0.135400
     16 H1          -2.9360     0.0200     4.3740 hc         1 9UM       0.054033
     17 H2          -1.6670     0.8760     5.2620 hc         1 9UM       0.054033
     18 H3          -1.6940    -0.8930     5.2430 hc         1 9UM       0.054033
     19 H4           0.6970     0.4240     5.4600 h1         1 9UM       0.094200
     20 H5           2.1100     0.5760     4.4060 h1         1 9UM       0.094200
     21 H6           3.5000    -0.9480     2.2100 hc         1 9UM       0.065033
     22 H7           3.4230     0.8030     2.4490 hc         1 9UM       0.065033
     23 H8           3.9220     0.1460     0.8850 hc         1 9UM       0.065033
     24 H9           2.9300    -0.8850    -1.2090 hc         1 9UM       0.051033
     25 H10          2.9250     0.8840    -1.2160 hc         1 9UM       0.051033
     26 H11          1.6870    -0.0070    -2.1120 hc         1 9UM       0.051033
@<TRIPOS>BOND
     1     8     4 1
     2     7     5 1
     3     4     5 2
     4     4    11 1
     5     5     6 1
     6    11     3 1
     7    11    12 1
     8     6    14 2
     9     6    12 1
    10     9     3 1
    11     3     2 2
    12    12     1 1
    13     2     1 1
    14     2    10 1
    15     1    13 2
    16     8    15 1
    17     7    16 1
    18     7    17 1
    19     7    18 1
    20     8    19 1
    21     8    20 1
    22     9    21 1
    23     9    22 1
    24     9    23 1
    25    10    24 1
    26    10    25 1
    27    10    26 1
@<TRIPOS>SUBSTRUCTURE
     1 9UM         1 TEMP              0 ****  ****    0 ROOT
