@<TRIPOS>MOLECULE
9UN
   56    59     1     0     0
SMALL
bcc


@<TRIPOS>ATOM
      1 C1         -0.2430    0.6870   -0.1320 ca        1 9UN     -0.338000
      2 C2          1.1490    0.8120   -0.0960 ca        1 9UN      0.247100
      3 C3          1.8950    0.5320    1.0770 ca        1 9UN     -0.279500
      4 C4          1.1640    0.1100    2.2220 ca        1 9UN      0.232100
      5 C5         -0.2210   -0.0240    2.2100 ca        1 9UN     -0.263000
      6 C6         -0.9190    0.2680    1.0240 ca        1 9UN      0.250100
      7 O7         -2.2730    0.1190    1.0740 oh        1 9UN     -0.464100
      8 O8          1.8590    1.2160   -1.1950 oh        1 9UN     -0.497100
      9 O9          1.9460   -0.1970    3.3190 os        1 9UN     -0.240200
     10 C10         1.3010   -0.3430    4.5510 ca        1 9UN      0.114100
     11 C11         1.5800   -1.5180    5.2620 ca        1 9UN     -0.148500
     12 C12         1.0890   -1.6560    6.5570 ca        1 9UN     -0.050500
     13 C13         0.3210   -0.6230    7.1180 ca        1 9UN     -0.177200
     14 C14         0.0370    0.5480    6.3960 ca        1 9UN     -0.050500
     15 C15         0.5320    0.6890    5.1030 ca        1 9UN     -0.148500
     16 N16        -0.2030   -0.7720    8.5050 no        1 9UN      0.314200
     17 O17         0.0570   -1.7730    9.1140 o         1 9UN     -0.193000
     18 O18        -0.8660    0.1160    8.9680 o         1 9UN     -0.193000
     19 C19         3.3150    0.6680    1.0910 cc        1 9UN      0.404200
     20 O20         4.0090    0.3170    2.2900 os        1 9UN     -0.034100
     21 N21         5.2840    0.4970    2.1480 nc        1 9UN     -0.343300
     22 C22         5.5290    0.9620    0.8880 cd        1 9UN      0.195800
     23 C23         4.2750    1.0870    0.1700 cd        1 9UN     -0.300600
     24 C24         6.8360    1.2920    0.3360 c         1 9UN      0.497600
     25 O25         7.0820    1.7270   -0.7780 o         1 9UN     -0.402100
     26 N26         7.9940    1.0600    1.2820 n4        1 9UN     -0.673800
     27 C27         9.3540    1.3450    0.6930 c3        1 9UN      0.124500
     28 C28        10.3820    1.5770    1.8040 c3        1 9UN     -0.102900
     29 C29        11.7520    1.8520    1.1760 c3        1 9UN      0.171800
     30 N30        12.1750    0.7840    0.2850 n3        1 9UN     -0.740600
     31 C31        11.2090    0.5340   -0.7730 c3        1 9UN      0.171800
     32 C32         9.8160    0.2100   -0.2260 c3        1 9UN     -0.102900
     33 C33        13.5230    0.9600   -0.2100 c3        1 9UN      0.155100
     34 H1         -0.7980    0.9120   -1.0540 ha        1 9UN      0.159000
     35 H5         -0.7760   -0.3580    3.0990 ha        1 9UN      0.185000
     36 HO7        -2.6480    0.3350    0.2040 ho        1 9UN      0.442000
     37 HO8         1.2390    1.3680   -1.9270 ho        1 9UN      0.447000
     38 H11         2.1880   -2.3120    4.8030 ha        1 9UN      0.165000
     39 H12         1.2990   -2.5730    7.1370 ha        1 9UN      0.184000
     40 H14        -0.5700    1.3520    6.8520 ha        1 9UN      0.184000
     41 H15         0.3210    1.5990    4.5210 ha        1 9UN      0.165000
     42 H23         4.1300    1.4310   -0.8530 ha        1 9UN      0.218000
     43 HN26        7.9670    0.0800    1.5940 hn        1 9UN      0.466300
     44 H27         9.2470    2.2930    0.0800 hx        1 9UN      0.117700
     45 H28        10.1000    2.4640    2.4290 hc        1 9UN      0.071700
     46 H28A       10.4500    0.6770    2.4710 hc        1 9UN      0.071700
     47 H29        12.5080    1.9280    2.0090 h1        1 9UN      0.057450
     48 H29A       11.7110    2.8520    0.6530 h1        1 9UN      0.057450
     49 H31        11.1200    1.4080   -1.4830 h1        1 9UN      0.057450
     50 H31A       11.5660   -0.3560   -1.3650 h1        1 9UN      0.057450
     51 H32         9.8500   -0.7610    0.3350 hc        1 9UN      0.071700
     52 H32A        9.1120    0.1020   -1.0920 hc        1 9UN      0.071700
     53 H33        14.2180    1.0480    0.6660 h1        1 9UN      0.049033
     54 H33A       13.8080    0.0530   -0.8050 h1        1 9UN      0.049033
     55 H33B       13.6390    1.8710   -0.8580 h1        1 9UN      0.049033
     56 H262        7.8580    1.6570    2.1070 hn        1 9UN      0.466300
@<TRIPOS>BOND
     1    1    2 ar
     2    1    6 ar
     3    1   34 1
     4    2    3 ar
     5    2    8 1
     6    3    4 ar
     7    3   19 1
     8    4    5 ar
     9    4    9 1
    10    5    6 ar
    11    5   35 1
    12    6    7 1
    13    7   36 1
    14    8   37 1
    15    9   10 1
    16   10   11 ar
    17   10   15 ar
    18   11   12 ar
    19   11   38 1
    20   12   13 ar
    21   12   39 1
    22   13   14 ar
    23   13   16 1
    24   14   15 ar
    25   14   40 1
    26   15   41 1
    27   16   17 1
    28   16   18 1
    29   19   20 1
    30   19   23 2
    31   20   21 1
    32   21   22 2
    33   22   23 1
    34   22   24 1
    35   23   42 1
    36   24   25 2
    37   24   26 1
    38   26   27 1
    39   26   43 1
    40   26   56 1
    41   27   28 1
    42   27   32 1
    43   27   44 1
    44   28   29 1
    45   28   45 1
    46   28   46 1
    47   29   30 1
    48   29   47 1
    49   29   48 1
    50   30   31 1
    51   30   33 1
    52   31   32 1
    53   31   49 1
    54   31   50 1
    55   32   51 1
    56   32   52 1
    57   33   53 1
    58   33   54 1
    59   33   55 1
@<TRIPOS>SUBSTRUCTURE
     1 9UN         1 TEMP              0 ****  ****    0 ROOT
