@<TRIPOS>MOLECULE
9UO
   40    41     1     0     0
SMALL
bcc


@<TRIPOS>ATOM
      1 C10          0.0000     0.0000     0.0000 cp         1 9UO       0.666000
      2 C13         -2.8130     0.0030    -2.4860 ca         1 9UO      -0.075000
      3 C15         -0.6920     0.0040    -3.5940 ca         1 9UO       0.383300
      4 C21         -2.1550     0.0180     3.4970 c3         1 9UO       0.075500
      5 C22         -2.6540     1.4590     3.3790 c3         1 9UO      -0.017600
      6 C01          4.2520    -1.4360    -0.6210 c3         1 9UO      -0.017600
      7 C02          4.1070    -0.0000    -0.1150 c3         1 9UO       0.075500
      8 C03          5.4940     0.6100     0.0970 c3         1 9UO       0.561900
      9 C08          1.9930     0.0000     1.1520 ca         1 9UO       0.787400
     10 C11         -0.7420     0.0010    -1.2860 cp         1 9UO       0.309300
     11 C12         -2.1340     0.0020    -1.2790 ca         1 9UO      -0.171300
     12 C14         -2.0770     0.0050    -3.6600 ca         1 9UO      -0.192300
     13 C19         -0.0000     0.0080     2.3020 ca         1 9UO       0.787400
     14 C23         -2.6710    -0.5960     4.8010 c3         1 9UO       0.561900
     15 F04          6.1960    -0.1480     1.0410 f          1 9UO      -0.203133
     16 F05          6.1940     0.6100    -1.1150 f          1 9UO      -0.203133
     17 F06          5.3600     1.9230     0.5590 f          1 9UO      -0.203133
     18 F24         -2.1990     0.1520     5.8860 f          1 9UO      -0.203133
     19 F25         -4.0690    -0.5850     4.8010 f          1 9UO      -0.203133
     20 F26         -2.2140    -1.9140     4.9090 f          1 9UO      -0.203133
     21 N07          3.3740    -0.0010     1.1530 nu         1 9UO      -0.463400
     22 N09          1.3290     0.0000     0.0000 nb         1 9UO      -0.767500
     23 N17         -0.0720     0.0030    -2.4310 nb         1 9UO      -0.508000
     24 N18         -0.6650     0.0040     1.1510 nb         1 9UO      -0.767500
     25 N20         -0.6900     0.0060     3.4980 nu         1 9UO      -0.463400
     26 N27          1.3290    -0.0020     2.3030 nb         1 9UO      -0.794000
     27 H1          -3.8960     0.0040    -2.5120 ha         1 9UO       0.114000
     28 H2          -2.5200    -0.5610     2.6570 h1         1 9UO       0.090700
     29 H3          -3.7320     1.4600     3.2630 hc         1 9UO       0.025533
     30 H4          -2.3870     2.0080     4.2740 hc         1 9UO       0.025533
     31 H5          -2.1980     1.9300     2.5170 hc         1 9UO       0.025533
     32 H6           3.8140    -1.5170    -1.6090 hc         1 9UO       0.025533
     33 H7           3.7430    -2.1110     0.0560 hc         1 9UO       0.025533
     34 H8           5.3030    -1.6980    -0.6700 hc         1 9UO       0.025533
     35 H9           3.5630     0.5860    -0.8460 h1         1 9UO       0.090700
     36 H10         -2.6790     0.0000    -0.3430 ha         1 9UO       0.133000
     37 H11         -2.5780     0.0060    -4.6200 ha         1 9UO       0.123000
     38 H12          3.8740    -0.0090     2.0200 hn         1 9UO       0.312800
     39 H13         -0.1900     0.0180     4.3650 hn         1 9UO       0.312800
     40 Cl1          0.2360     0.0070    -5.0600 cl         1 9UO      -0.084000
@<TRIPOS>BOND
     1     1    10 1   
     2     1    22 ar  
     3     1    24 ar  
     4     2    11 ar  
     5     2    12 ar  
     6     2    27 1   
     7     3    12 ar  
     8     3    23 ar  
     9     3    40 1   
    10     4     5 1   
    11     4    14 1   
    12     4    25 1   
    13     4    28 1   
    14     5    29 1   
    15     5    30 1   
    16     5    31 1   
    17     6     7 1   
    18     6    32 1   
    19     6    33 1   
    20     6    34 1   
    21     7     8 1   
    22     7    21 1   
    23     7    35 1   
    24     8    15 1   
    25     8    16 1   
    26     8    17 1   
    27     9    21 1   
    28     9    22 ar  
    29     9    26 ar  
    30    10    11 ar  
    31    10    23 ar  
    32    11    36 1   
    33    12    37 1   
    34    13    24 ar  
    35    13    25 1   
    36    13    26 ar  
    37    14    18 1   
    38    14    19 1   
    39    14    20 1   
    40    21    38 1   
    41    25    39 1   
@<TRIPOS>SUBSTRUCTURE
     1 9UO         1 TEMP              0 ****  ****    0 ROOT
