@<TRIPOS>MOLECULE
molecule
   32    33     1     0     0
SMALL
bcc


@<TRIPOS>ATOM
      1 CAA          0.0000     0.0000     0.0000 c3         1 9UP       0.155700
      2 OAL          1.4520     0.0000     0.0000 os         1 9UP      -0.432900
      3 CAN          2.0630     0.0000     1.2000 c          1 9UP       0.753100
      4 OAD          1.4020    -0.0000     2.2190 o          1 9UP      -0.583000
      5 N1           3.4090    -0.0010     1.2700 ns         1 9UP      -0.460100
      6 CAP          4.0430     0.1180     2.5070 ca         1 9UP       0.101600
      7 CAR          5.3520    -0.3810     2.6880 ca         1 9UP      -0.082000
      8 CAJ          6.0410    -1.0010     1.6380 ca         1 9UP       0.007000
      9 CAF          3.3990     0.7270     3.5630 ca         1 9UP      -0.129000
     10 CAE          4.0240     0.8510     4.8000 ca         1 9UP      -0.056000
     11 CAH          5.2840     0.3760     5.0040 ca         1 9UP      -0.147000
     12 CAQ          5.9770    -0.2490     3.9540 ca         1 9UP       0.009000
     13 CAI          7.2790    -0.7490     4.1410 ca         1 9UP      -0.069000
     14 CAG          7.9310    -1.3480     3.1130 ca         1 9UP      -0.157000
     15 CAO          7.3240    -1.4780     1.8520 ca         1 9UP      -0.218900
     16 CAM          8.0560    -2.1360     0.7480 ce         1 9UP       0.551800
     17 N2           9.3290    -2.6190     0.9570 nz         1 9UP      -0.800600
     18 N3           7.4970    -2.2590    -0.4230 n2         1 9UP      -0.705100
     19 H1          -0.3610    -0.8410     0.5800 h1         1 9UP       0.060033
     20 H2          -0.3610    -0.0820    -1.0180 h1         1 9UP       0.060033
     21 H3          -0.3610     0.9220     0.4380 h1         1 9UP       0.060033
     22 H4           3.9540    -0.0370     0.4310 hn         1 9UP       0.337500
     23 H5           5.5760    -1.1030     0.6640 ha         1 9UP       0.161000
     24 H6           2.3960     1.1140     3.4280 ha         1 9UP       0.195000
     25 H7           3.4990     1.3340     5.6150 ha         1 9UP       0.157000
     26 H8           5.7520     0.4820     5.9750 ha         1 9UP       0.151000
     27 H9           7.7610    -0.6570     5.1070 ha         1 9UP       0.158000
     28 H10          8.9340    -1.7260     3.2650 ha         1 9UP       0.100000
     29 H11          9.3090    -3.3100     1.6810 hn         1 9UP       0.464467
     30 H12          9.9310    -1.8670     1.2310 hn         1 9UP       0.464467
     31 H13          7.9930    -2.7050    -1.1700 hn         1 9UP       0.429400
     32 H23          9.6730    -3.0300     0.1120 hn         1 9UP       0.464467
@<TRIPOS>BOND
     1    13    14 ar
     2    13    12 ar
     3    11    12 ar
     4    11    10 ar
     5    14    15 ar
     6    12     7 ar
     7    10     9 ar
     8    15    16 1
     9    15     8 ar
    10    18    16 2
    11     7     8 ar
    12     7     6 ar
    13    16    17 1
    14     9     6 ar
    15     6     5 1
    16     5     3 1
    17     3     2 1
    18     3     4 2
    19     2     1 1
    20     1    19 1
    21     1    20 1
    22     1    21 1
    23     5    22 1
    24     8    23 1
    25     9    24 1
    26    10    25 1
    27    11    26 1
    28    13    27 1
    29    14    28 1
    30    17    29 1
    31    17    30 1
    32    18    31 1
    33    32    17 1
@<TRIPOS>SUBSTRUCTURE
     1 9UP         1 TEMP              0 ****  ****    0 ROOT
