@<TRIPOS>MOLECULE
9UP
   32    33     1     0     0
SMALL
bcc


@<TRIPOS>ATOM
      1 CAA          0.0000     0.0000     0.0000 c3         1 9UP       0.288700
      2 OAL          1.4520     0.0000     0.0000 os         1 9UP      -0.424900
      3 CAN          2.0630     0.0000     1.2000 c          1 9UP       0.672100
      4 OAD          1.4020    -0.0000     2.2190 o          1 9UP      -0.624000
      5 N1           3.4090    -0.0010     1.2700 ns         1 9UP      -0.007100
      6 CAP          4.0430     0.1180     2.5070 ca         1 9UP      -0.063400
      7 CAR          5.3520    -0.3810     2.6880 ca         1 9UP      -0.062000
      8 CAJ          6.0410    -1.0010     1.6380 ca         1 9UP      -0.014000
      9 CAF          3.3990     0.7270     3.5630 ca         1 9UP      -0.101000
     10 CAE          4.0240     0.8510     4.8000 ca         1 9UP      -0.021000
     11 CAH          5.2840     0.3760     5.0040 ca         1 9UP      -0.115000
     12 CAQ          5.9770    -0.2490     3.9540 ca         1 9UP       0.006000
     13 CAI          7.2790    -0.7490     4.1410 ca         1 9UP      -0.020000
     14 CAG          7.9310    -1.3480     3.1130 ca         1 9UP      -0.134000
     15 CAO          7.3240    -1.4780     1.8520 ca         1 9UP      -0.242900
     16 CAM          8.0560    -2.1360     0.7480 ce         1 9UP       0.225800
     17 N2           9.3290    -2.6190     0.9570 nz         1 9UP       0.189400
     18 N3           7.4970    -2.2590    -0.4230 n2         1 9UP      -0.514100
     19 H1          -0.3610     0.9220     0.4380 h1         1 9UP       0.008700
     20 H2          -0.3610    -0.0820    -1.0180 h1         1 9UP       0.008700
     21 H3          -0.3610    -0.8410     0.5800 h1         1 9UP       0.008700
     22 H4           3.9530    -0.0350     0.4310 hn         1 9UP       0.166500
     23 H5           5.5760    -1.1030     0.6640 ha         1 9UP       0.105000
     24 H6           2.3960     1.1140     3.4280 ha         1 9UP       0.172000
     25 H7           3.4990     1.3340     5.6150 ha         1 9UP       0.120000
     26 H8           5.7520     0.4820     5.9750 ha         1 9UP       0.122000
     27 H9           7.7610    -0.6570     5.1070 ha         1 9UP       0.124000
     28 H10          8.9340    -1.7260     3.2650 ha         1 9UP       0.082000
     29 H11          9.6730    -3.0300     0.1120 hn         1 9UP       0.221800
     30 H12          9.9310    -1.8670     1.2310 hn         1 9UP       0.221800
     31 H13          6.5720    -1.9090    -0.5770 hn         1 9UP       0.376400
     32 H23          9.3100    -3.3100     1.6810 hn         1 9UP       0.221800
@<TRIPOS>BOND
     1     1     2 1   
     2     1    19 1   
     3     1    20 1   
     4     1    21 1   
     5     2     3 1   
     6     3     4 2   
     7     3     5 1   
     8     5     6 1   
     9     5    22 1   
    10     6     7 ar  
    11     6     9 ar  
    12     7     8 ar  
    13     7    12 ar  
    14     8    15 ar  
    15     8    23 1   
    16     9    10 ar  
    17     9    24 1   
    18    10    11 ar  
    19    10    25 1   
    20    11    12 ar  
    21    11    26 1   
    22    12    13 ar  
    23    13    14 ar  
    24    13    27 1   
    25    14    15 ar  
    26    14    28 1   
    27    15    16 1   
    28    16    17 1   
    29    16    18 2   
    30    17    29 1   
    31    17    30 1   
    32    17    32 1   
    33    18    31 1   
@<TRIPOS>SUBSTRUCTURE
     1 9UP         1 TEMP              0 ****  ****    0 ROOT
