@<TRIPOS>MOLECULE
molecule
   33    34     1     0     0
SMALL
bcc


@<TRIPOS>ATOM
      1 C12          0.0000     0.0000     0.0000 ca         1 9UQ      -0.160000
      2 C2           0.2340    -0.1310     4.8630 c3         1 9UQ      -0.084400
      3 C7          -1.2950     1.2960     6.1880 c          1 9UQ       0.697500
      4 C6          -1.4930     1.3220     3.8440 c          1 9UQ       0.706500
      5 C5          -0.5420    -0.0090     6.1790 c3         1 9UQ      -0.159400
      6 C4           0.0020     0.0120     2.3950 ca         1 9UQ      -0.100300
      7 C3          -1.7490    -1.1410     3.7200 c3         1 9UQ      -0.069400
      8 O2          -1.5220     1.8430     7.2470 o          1 9UQ      -0.610500
      9 O1          -1.8960     1.8910     2.8520 o          1 9UQ      -0.599500
     10 N1          -1.7180     1.8640     5.0500 ns         1 9UQ      -0.569500
     11 C1          -0.7530     0.0200     3.6980 c3         1 9UQ      -0.080700
     12 C9           1.3860     0.0110     2.3980 ca         1 9UQ      -0.094500
     13 C11          2.0800     0.0000     1.2050 ca         1 9UQ      -0.160000
     14 C13          1.3890     0.0000     0.0000 ca         1 9UQ       0.179600
     15 N2           2.0880    -0.0010    -1.2090 nv         1 9UQ      -0.976200
     16 C10         -0.6900     0.0060     1.1970 ca         1 9UQ      -0.094500
     17 H1          -0.5420    -0.0020    -0.9380 ha         1 9UQ       0.135500
     18 H2           0.7100    -1.1030     4.8110 hc         1 9UQ       0.065200
     19 H3           0.9810     0.6510     4.8080 hc         1 9UQ       0.065200
     20 H4          -1.2430    -0.8310     6.2620 hc         1 9UQ       0.083200
     21 H5           0.1520    -0.0310     7.0100 hc         1 9UQ       0.083200
     22 H6          -2.4040    -1.0720     2.8600 hc         1 9UQ       0.052200
     23 H7          -2.3390    -1.0940     4.6280 hc         1 9UQ       0.052200
     24 H8          -2.2230     2.7270     5.1020 hn         1 9UQ       0.345500
     25 H9          -0.0700    -2.3380     3.1160 hc         1 9UQ       0.040700
     26 H10         -0.7550    -2.7840     4.6850 hc         1 9UQ       0.040700
     27 H11         -1.6020    -3.2190     3.1940 hc         1 9UQ       0.040700
     28 H12          1.9250     0.0110     3.3380 ha         1 9UQ       0.136500
     29 H13          3.1640    -0.0000     1.2080 ha         1 9UQ       0.135500
     30 H14          2.6690     0.7770    -1.4510 hn         1 9UQ       0.428800
     31 H15          2.0210    -0.7870    -1.8250 hn         1 9UQ       0.428800
     32 H16         -1.7730     0.0060     1.1980 ha         1 9UQ       0.136500
     33 C8          -0.9890    -2.4670     3.6760 c3         1 9UQ      -0.094100
@<TRIPOS>BOND
     1     8     3 2
     2     3     5 1
     3     3    10 1
     4     5     2 1
     5    10     4 1
     6     2    11 1
     7     4    11 1
     8     4     9 2
     9    11     7 1
    10    11     6 1
    11     7    33 1
    12     6    16 ar
    13     6    12 ar
    14    16     1 ar
    15    12    13 ar
    16     1    14 ar
    17    13    14 ar
    18    14    15 1
    19     1    17 1
    20     2    18 1
    21     2    19 1
    22     5    20 1
    23     5    21 1
    24     7    22 1
    25     7    23 1
    26    10    24 1
    27    33    25 1
    28    33    26 1
    29    33    27 1
    30    12    28 1
    31    13    29 1
    32    15    30 1
    33    15    31 1
    34    16    32 1
@<TRIPOS>SUBSTRUCTURE
     1 9UQ         1 TEMP              0 ****  ****    0 ROOT
