@<TRIPOS>MOLECULE
9UQ
   33    34     1     0     0
SMALL
bcc


@<TRIPOS>ATOM
      1 C12          0.0000     0.0000     0.0000 ca         1 9UQ      -0.130000
      2 C2           0.2340    -0.1310     4.8630 c3         1 9UQ      -0.045400
      3 C7          -1.2950     1.2960     6.1880 c          1 9UQ       0.607500
      4 C6          -1.4930     1.3220     3.8440 c          1 9UQ       0.617500
      5 C5          -0.5420    -0.0090     6.1790 c3         1 9UQ      -0.102400
      6 C4           0.0020     0.0120     2.3950 ca         1 9UQ      -0.103300
      7 C3          -1.7490    -1.1410     3.7200 c3         1 9UQ      -0.022400
      8 O2          -1.5220     1.8430     7.2470 o          1 9UQ      -0.644500
      9 O1          -1.8960     1.8910     2.8520 o          1 9UQ      -0.633500
     10 N1          -1.7180     1.8640     5.0500 ns         1 9UQ      -0.148500
     11 C1          -0.7530     0.0200     3.6980 c3         1 9UQ      -0.067700
     12 C9           1.3860     0.0110     2.3980 ca         1 9UQ      -0.073500
     13 C11          2.0800     0.0000     1.2050 ca         1 9UQ      -0.130000
     14 C13          1.3890     0.0000     0.0000 ca         1 9UQ       0.040600
     15 N2           2.0880    -0.0010    -1.2090 nv         1 9UQ      -0.533200
     16 C10         -0.6900     0.0060     1.1970 ca         1 9UQ      -0.073500
     17 H1          -0.5420    -0.0020    -0.9380 ha         1 9UQ       0.109000
     18 H2           0.7100    -1.1030     4.8110 hc         1 9UQ       0.040700
     19 H3           0.9810     0.6510     4.8080 hc         1 9UQ       0.040700
     20 H4          -1.2430    -0.8310     6.2620 hc         1 9UQ       0.050200
     21 H5           0.1520    -0.0310     7.0100 hc         1 9UQ       0.050200
     22 H6          -2.4040    -1.0720     2.8600 hc         1 9UQ       0.025700
     23 H7          -2.3390    -1.0940     4.6280 hc         1 9UQ       0.025700
     24 H8          -2.2230     2.7270     5.1020 hn         1 9UQ       0.195500
     25 H9          -0.0700    -2.3380     3.1160 hc         1 9UQ       0.010367
     26 H10         -0.7550    -2.7840     4.6850 hc         1 9UQ       0.010367
     27 H11         -1.6020    -3.2190     3.1940 hc         1 9UQ       0.010367
     28 H12          1.9250     0.0110     3.3380 ha         1 9UQ       0.115500
     29 H13          3.1640    -0.0000     1.2080 ha         1 9UQ       0.109000
     30 H14          2.6690     0.7770    -1.4510 hn         1 9UQ       0.271300
     31 H15          2.0210    -0.7870    -1.8250 hn         1 9UQ       0.271300
     32 H16         -1.7730     0.0060     1.1980 ha         1 9UQ       0.115500
     33 C8          -0.9890    -2.4670     3.6760 c3         1 9UQ      -0.008100
@<TRIPOS>BOND
     1     1    14 ar  
     2     1    16 ar  
     3     1    17 1   
     4     2     5 1   
     5     2    11 1   
     6     2    18 1   
     7     2    19 1   
     8     3     5 1   
     9     3     8 2   
    10     3    10 1   
    11     4     9 2   
    12     4    10 1   
    13     4    11 1   
    14     5    20 1   
    15     5    21 1   
    16     6    11 1   
    17     6    12 ar  
    18     6    16 ar  
    19     7    11 1   
    20     7    22 1   
    21     7    23 1   
    22     7    33 1   
    23    10    24 1   
    24    12    13 ar  
    25    12    28 1   
    26    13    14 ar  
    27    13    29 1   
    28    14    15 1   
    29    15    30 1   
    30    15    31 1   
    31    16    32 1   
    32    25    33 1   
    33    26    33 1   
    34    27    33 1   
@<TRIPOS>SUBSTRUCTURE
     1 9UQ         1 TEMP              0 ****  ****    0 ROOT
