@<TRIPOS>MOLECULE
9UT
   10    10     1     0     0
SMALL
bcc


@<TRIPOS>ATOM
      1 O2           0.0000     0.0000     0.0000 o          1 9UT      -0.600500
      2 C2           1.2120     0.0000     0.0000 c          1 9UT       0.861400
      3 N3           2.0410     0.0000     1.0640 ns         1 9UT      -0.105500
      4 S1           2.3020    -0.0090    -1.3990 sx         1 9UT      -0.278900
      5 C5           3.6520    -0.0050    -0.6080 ce         1 9UT      -0.670200
      6 C4           3.3310    -0.0010     0.7480 c          1 9UT       0.610700
      7 O4           4.1960    -0.0010     1.6050 o          1 9UT      -0.671500
      8 H1           1.7130     0.0030     2.0100 hn         1 9UT       0.204500
      9 H2           4.4890     0.5800    -0.9680 h4         1 9UT       0.157000
     10 H3           2.0530    -0.0130    -2.7030 hs         1 9UT       0.494000
@<TRIPOS>BOND
     1     1     2 2   
     2     2     3 1   
     3     2     4 1   
     4     3     6 1   
     5     3     8 1   
     6     4     5 2   
     7     4    10 1   
     8     5     6 1   
     9     5     9 1   
    10     6     7 2   
@<TRIPOS>SUBSTRUCTURE
     1 9UT         1 TEMP              0 ****  ****    0 ROOT
