@<TRIPOS>MOLECULE
molecule
   10    10     1     0     0
SMALL
bcc


@<TRIPOS>ATOM
      1 O2           0.0000     0.0000     0.0000 o          1 9UT      -0.553500
      2 C2           1.2120     0.0000     0.0000 c          1 9UT       0.734400
      3 N3           2.0410     0.0000     1.0640 ns         1 9UT      -0.571500
      4 S1           2.3020    -0.0090    -1.3990 sx         1 9UT       0.151100
      5 C5           3.6520    -0.0050    -0.6080 ce         1 9UT      -0.492200
      6 C4           3.3310    -0.0010     0.7480 c          1 9UT       0.686700
      7 O4           4.1960    -0.0010     1.6050 o          1 9UT      -0.573500
      8 H1           1.7130     0.0030     2.0100 hn         1 9UT       0.337500
      9 H2           4.4890     0.5800    -0.9680 h4         1 9UT       0.188000
     10 H3           2.0530    -0.0130    -2.7030 hs         1 9UT       0.094000
@<TRIPOS>BOND
     1     1     2 2
     2     3     2 1
     3     3     6 1
     4     2     4 1
     5     6     7 2
     6     6     5 1
     7     4     5 2
     8     3     8 1
     9     5     9 1
    10     4    10 1
@<TRIPOS>SUBSTRUCTURE
     1 9UT         1 TEMP              0 ****  ****    0 ROOT
