@<TRIPOS>MOLECULE
9UW
    9     9     1     0     0
SMALL
bcc


@<TRIPOS>ATOM
      1 O7           0.0000     0.0000     0.0000 o          1 9UW      -0.541500
      2 C7           1.2150     0.0000     0.0000 c          1 9UW       0.430200
      3 C1           2.1130     0.0000     1.1810 cc         1 9UW       0.416200
      4 N2           3.3300    -0.0000     0.7160 nd         1 9UW      -0.440100
      5 C8           3.3010     0.0010    -0.6260 cs         1 9UW       0.376800
      6 N1           2.0330    -0.0050    -1.0760 ns         1 9UW      -0.090500
      7 S8           4.6880     0.0030    -1.6280 s          1 9UW      -0.404400
      8 H1           1.8660     0.5980     2.0500 h4         1 9UW       0.030800
      9 H2           1.7470    -0.0050    -2.0350 hn         1 9UW       0.222500
@<TRIPOS>BOND
     1     1     2 2   
     2     2     3 1   
     3     2     6 1   
     4     3     4 2   
     5     3     8 1   
     6     4     5 1   
     7     5     6 1   
     8     5     7 2   
     9     6     9 1   
@<TRIPOS>SUBSTRUCTURE
     1 9UW         1 TEMP              0 ****  ****    0 ROOT
