@<TRIPOS>MOLECULE
molecule
    9     9     1     0     0
SMALL
bcc


@<TRIPOS>ATOM
      1 O7           0.0000     0.0000     0.0000 o          1 9UW      -0.524500
      2 C7           1.2150     0.0000     0.0000 c          1 9UW       0.522200
      3 C1           2.1130     0.0000     1.1810 cc         1 9UW       0.425200
      4 N2           3.3300    -0.0000     0.7160 nd         1 9UW      -0.529100
      5 C8           3.3010     0.0010    -0.6260 cs         1 9UW       0.530800
      6 N1           2.0330    -0.0050    -1.0760 ns         1 9UW      -0.548500
      7 S8           4.6880     0.0030    -1.6280 s          1 9UW      -0.344400
      8 H1           1.8660     0.5980     2.0500 h4         1 9UW       0.087800
      9 H2           1.7470    -0.0050    -2.0350 hn         1 9UW       0.379500
@<TRIPOS>BOND
     1     7     5 2
     2     6     5 1
     3     6     2 1
     4     5     4 1
     5     2     1 2
     6     2     3 1
     7     4     3 2
     8     3     8 1
     9     6     9 1
@<TRIPOS>SUBSTRUCTURE
     1 9UW         1 TEMP              0 ****  ****    0 ROOT
