@<TRIPOS>MOLECULE
molecule
   79    82     1     0     0
SMALL
bcc


@<TRIPOS>ATOM
      1 O2D          0.0000     0.0000     0.0000 o          1 9UY      -0.865300
      2 CGD          1.3420     0.0000     0.0000 c          1 9UY       0.882600
      3 O1D          1.9470     0.0000     1.0460 o          1 9UY      -0.865300
      4 CBD          2.0950     0.0020    -1.3060 c3         1 9UY      -0.190400
      5 CAD          3.5990     0.0020    -1.0260 c3         1 9UY       0.009900
      6 C3D          4.3530     0.0040    -2.3310 cc         1 9UY      -0.142300
      7 C2D          4.7700     1.1400    -3.0520 cc         1 9UY      -0.132300
      8 CMD          4.5440     2.5780    -2.6600 c3         1 9UY      -0.007800
      9 C1D          5.4080     0.7060    -4.1590 cd         1 9UY      -0.150600
     10 CHD          6.0240     1.5760    -5.2230 c3         1 9UY      -0.027400
     11 C4C          7.4190     1.9660    -4.8090 c2         1 9UY       0.524300
     12 C3C          8.3550     2.8370    -5.6180 c3         1 9UY      -0.152800
     13 CAC          8.6660     2.1920    -6.9450 c2         1 9UY      -0.123200
     14 CBC          8.3860     2.8210    -8.0600 c2         1 9UY      -0.213000
     15 C2C          9.6200     2.9090    -4.7370 c3         1 9UY      -0.229700
     16 CMC          9.9080     4.3510    -4.3180 c3         1 9UY      -0.073100
     17 C1C          9.2380     2.0660    -3.5360 c          1 9UY       0.722500
     18 OC           9.9440     1.8440    -2.5750 o          1 9UY      -0.501100
     19 NC           7.9890     1.6130    -3.7100 ne         1 9UY      -0.639100
     20 C4D          4.7570    -1.0830    -3.0220 cd         1 9UY      -0.088600
     21 ND           5.4000    -0.6580    -4.1470 na         1 9UY      -0.138100
     22 CHA          4.5330    -2.5170    -2.6200 c3         1 9UY       0.071200
     23 C1A          3.1730    -2.9650    -3.0910 cd         1 9UY      -0.107600
     24 C2A          2.8810    -3.4490    -4.3160 cc         1 9UY      -0.136300
     25 CAA          3.8500    -3.6410    -5.4530 c3         1 9UY       0.013900
     26 CBA          4.4570    -5.0440    -5.3760 c3         1 9UY      -0.178400
     27 CGA          5.4260    -5.2350    -6.5140 c          1 9UY       0.889600
     28 O2A          5.6110    -4.3420    -7.3060 o          1 9UY      -0.869300
     29 O1A          6.0820    -6.3980    -6.6480 o          1 9UY      -0.869300
     30 C3A          1.5040    -3.7440    -4.3350 cc         1 9UY      -0.142300
     31 CMA          0.7280    -4.3080    -5.4970 c3         1 9UY      -0.007800
     32 C4A          1.0060    -3.4290    -3.1220 cd         1 9UY      -0.126600
     33 NA           2.0270    -2.9550    -2.3520 na         1 9UY      -0.134100
     34 CHB         -0.4300    -3.5780    -2.6880 c3         1 9UY      -0.039400
     35 C1B         -0.6640    -4.9850    -2.2020 cc         1 9UY       0.550600
     36 C2B         -1.9020    -5.4750    -1.7270 cc         1 9UY      -0.218800
     37 CMB         -3.1880    -4.6970    -1.6200 c3         1 9UY      -0.035900
     38 C3B         -1.7160    -6.7840    -1.3820 cd         1 9UY      -0.185200
     39 CAB         -2.6780    -7.6810    -0.8560 cf         1 9UY      -0.118000
     40 CBB         -2.3290    -8.9450    -0.5660 c2         1 9UY      -0.197000
     41 C4B         -0.2680    -7.0660    -1.6790 c          1 9UY       0.699700
     42 OB           0.3150    -8.1170    -1.5170 o          1 9UY      -0.477100
     43 NB           0.2530    -5.9230    -2.1680 nd         1 9UY      -0.628100
     44 H2           1.8330    -0.8830    -1.8750 hc         1 9UY       0.037200
     45 H3           1.8330     0.8870    -1.8730 hc         1 9UY       0.037200
     46 H4           3.8610     0.8850    -0.4570 hc         1 9UY       0.044700
     47 H5           3.8620    -0.8840    -0.4600 hc         1 9UY       0.044700
     48 H6           4.9390     3.2290    -3.4310 hc         1 9UY       0.027033
     49 H7           3.4820     2.7590    -2.5440 hc         1 9UY       0.027033
     50 H8           5.0490     2.7810    -1.7230 hc         1 9UY       0.027033
     51 H9           5.4230     2.4680    -5.3520 hc         1 9UY       0.076200
     52 H10          6.0640     1.0290    -6.1570 hc         1 9UY       0.076200
     53 H11          7.9310     3.8240    -5.7550 hc         1 9UY       0.077700
     54 H12          9.6870     2.4330    -6.6730 ha         1 9UY       0.095000
     55 H13          8.9320     3.7530    -8.1380 ha         1 9UY       0.101000
     56 H14          7.5190     3.4610    -7.9480 ha         1 9UY       0.101000
     57 H15         10.4690     2.4750    -5.2520 hc         1 9UY       0.089700
     58 H16         10.0860     4.9540    -5.2000 hc         1 9UY       0.040367
     59 H17         10.7840     4.3740    -3.6820 hc         1 9UY       0.040367
     60 H18          9.0570     4.7460    -3.7760 hc         1 9UY       0.040367
     61 H19          5.8030    -1.2490    -4.8460 hn         1 9UY       0.306700
     62 H20          4.5880    -2.6030    -1.5410 hc         1 9UY       0.065200
     63 H21          5.2950    -3.1420    -3.0710 hc         1 9UY       0.065200
     64 H22          3.3290    -3.5240    -6.3950 hc         1 9UY       0.037200
     65 H23          4.6390    -2.9020    -5.3840 hc         1 9UY       0.037200
     66 H24          4.9790    -5.1600    -4.4340 hc         1 9UY       0.036200
     67 H25          3.6680    -5.7830    -5.4450 hc         1 9UY       0.036200
     68 H27          0.8090    -5.3890    -5.4940 hc         1 9UY       0.027367
     69 H28         -0.3140    -4.0240    -5.4080 hc         1 9UY       0.027367
     70 H29          1.1310    -3.9190    -6.4240 hc         1 9UY       0.027367
     71 H30          1.9470    -2.6450    -1.4040 hn         1 9UY       0.314700
     72 H31         -0.6400    -2.8800    -1.8870 hc         1 9UY       0.087200
     73 H32         -1.0830    -3.3720    -3.5270 hc         1 9UY       0.087200
     74 H33         -3.0740    -3.7410    -2.1160 hc         1 9UY       0.048700
     75 H34         -3.4270    -4.5370    -0.5760 hc         1 9UY       0.048700
     76 H35         -3.9870    -5.2560    -2.0920 hc         1 9UY       0.048700
     77 H36         -3.6950    -7.3470    -0.6870 ha         1 9UY       0.118000
     78 H37         -3.0650    -9.6310    -0.1640 ha         1 9UY       0.124500
     79 H38         -1.3130    -9.2790    -0.7350 ha         1 9UY       0.124500
@<TRIPOS>BOND
     1     3     2 1
     2    28    27 1
     3     2     1 1
     4     2     4 1
     5     5     4 1
     6     5     6 1
     7    27    29 1
     8    27    26 1
     9    25    26 1
    10    25    24 1
    11     6     7 1
    12     6    20 2
    13     8     7 1
    14    22    20 1
    15    22    23 1
    16     7     9 2
    17    24    23 2
    18    24    30 1
    19    20    21 1
    20    23    33 1
    21    31    30 1
    22    30    32 2
    23     9    21 1
    24     9    10 1
    25    33    32 1
    26    10    11 1
    27    32    34 1
    28    34    35 1
    29    11    12 1
    30    11    19 2
    31    12    13 1
    32    12    15 1
    33    19    17 1
    34    35    43 2
    35    35    36 1
    36    43    41 1
    37    13    14 2
    38    16    15 1
    39    15    17 1
    40    36    37 1
    41    36    38 2
    42    41    42 2
    43    41    38 1
    44    17    18 2
    45    38    39 1
    46    39    40 2
    47     4    44 1
    48     4    45 1
    49     5    46 1
    50     5    47 1
    51     8    48 1
    52     8    49 1
    53     8    50 1
    54    10    51 1
    55    10    52 1
    56    12    53 1
    57    13    54 1
    58    14    55 1
    59    14    56 1
    60    15    57 1
    61    16    58 1
    62    16    59 1
    63    16    60 1
    64    21    61 1
    65    22    62 1
    66    22    63 1
    67    25    64 1
    68    25    65 1
    69    26    66 1
    70    26    67 1
    71    31    68 1
    72    31    69 1
    73    31    70 1
    74    33    71 1
    75    34    72 1
    76    34    73 1
    77    37    74 1
    78    37    75 1
    79    37    76 1
    80    39    77 1
    81    40    78 1
    82    40    79 1
@<TRIPOS>SUBSTRUCTURE
     1 9UY         1 TEMP              0 ****  ****    0 ROOT
