@<TRIPOS>MOLECULE
9UY
   79    82     1     0     0
SMALL
bcc


@<TRIPOS>ATOM
      1 O2D          0.0000     0.0000     0.0000 o          1 9UY      -0.912800
      2 CGD          1.3420     0.0000     0.0000 c          1 9UY       0.974600
      3 O1D          1.9470     0.0000     1.0460 o          1 9UY      -0.912800
      4 CBD          2.0950     0.0020    -1.3060 c3         1 9UY      -0.154400
      5 CAD          3.5990     0.0020    -1.0260 c3         1 9UY       0.074900
      6 C3D          4.3530     0.0040    -2.3310 cc         1 9UY      -0.142300
      7 C2D          4.7700     1.1400    -3.0520 cc         1 9UY      -0.139300
      8 CMD          4.5440     2.5780    -2.6600 c3         1 9UY       0.102200
      9 C1D          5.4080     0.7060    -4.1590 cd         1 9UY      -0.366600
     10 CHD          6.0240     1.5760    -5.2230 c3         1 9UY       0.062600
     11 C4C          7.4190     1.9660    -4.8090 c2         1 9UY       0.460300
     12 C3C          8.3550     2.8370    -5.6180 c3         1 9UY      -0.111800
     13 CAC          8.6660     2.1920    -6.9450 c2         1 9UY      -0.135200
     14 CBC          8.3860     2.8210    -8.0600 c2         1 9UY      -0.164000
     15 C2C          9.6200     2.9090    -4.7370 c3         1 9UY      -0.190700
     16 CMC          9.9080     4.3510    -4.3180 c3         1 9UY       0.029900
     17 C1C          9.2380     2.0660    -3.5360 c          1 9UY       0.717500
     18 OC           9.9440     1.8440    -2.5750 o          1 9UY      -0.540100
     19 NC           7.9890     1.6130    -3.7100 ne         1 9UY      -0.547100
     20 C4D          4.7570    -1.0830    -3.0220 cd         1 9UY      -0.302600
     21 ND           5.4000    -0.6580    -4.1470 na         1 9UY       0.432900
     22 CHA          4.5330    -2.5170    -2.6200 c3         1 9UY       0.175200
     23 C1A          3.1730    -2.9650    -3.0910 cc         1 9UY      -0.320600
     24 C2A          2.8810    -3.4490    -4.3160 cd         1 9UY      -0.139300
     25 CAA          3.8500    -3.6410    -5.4530 c3         1 9UY       0.077900
     26 CBA          4.4570    -5.0440    -5.3760 c3         1 9UY      -0.134400
     27 CGA          5.4260    -5.2350    -6.5140 c          1 9UY       0.982600
     28 O2A          5.6110    -4.3420    -7.3060 o          1 9UY      -0.918800
     29 O1A          6.0820    -6.3980    -6.6480 o          1 9UY      -0.918800
     30 C3A          1.5040    -3.7440    -4.3350 cd         1 9UY      -0.150300
     31 CMA          0.7280    -4.3080    -5.4970 c3         1 9UY       0.102200
     32 C4A          1.0060    -3.4290    -3.1220 cc         1 9UY      -0.339600
     33 NA           2.0270    -2.9550    -2.3520 na         1 9UY       0.433900
     34 CHB         -0.4300    -3.5780    -2.6880 c3         1 9UY       0.044600
     35 C1B         -0.6640    -4.9850    -2.2020 cc         1 9UY       0.509600
     36 C2B         -1.9020    -5.4750    -1.7270 cc         1 9UY      -0.204800
     37 CMB         -3.1880    -4.6970    -1.6200 c3         1 9UY       0.076100
     38 C3B         -1.7160    -6.7840    -1.3820 cd         1 9UY      -0.197200
     39 CAB         -2.6780    -7.6810    -0.8560 cf         1 9UY      -0.086000
     40 CBB         -2.3290    -8.9450    -0.5660 c2         1 9UY      -0.154000
     41 C4B         -0.2680    -7.0660    -1.6790 c          1 9UY       0.721700
     42 OB           0.3150    -8.1170    -1.5170 o          1 9UY      -0.506100
     43 NB           0.2530    -5.9230    -2.1680 nd         1 9UY      -0.567100
     44 H2           1.8330    -0.8830    -1.8750 hc         1 9UY       0.012700
     45 H3           1.8330     0.8870    -1.8730 hc         1 9UY       0.012700
     46 H4           3.8610     0.8850    -0.4570 hc         1 9UY       0.018700
     47 H5           3.8620    -0.8840    -0.4600 hc         1 9UY       0.018700
     48 H6           3.4830     2.7580    -2.5430 hc         1 9UY      -0.005967
     49 H7           5.0510     2.7810    -1.7240 hc         1 9UY      -0.005967
     50 H8           4.9380     3.2290    -3.4310 hc         1 9UY      -0.005967
     51 H9           5.4230     2.4680    -5.3520 hc         1 9UY       0.032200
     52 H10          6.0640     1.0290    -6.1570 hc         1 9UY       0.032200
     53 H11          7.9310     3.8240    -5.7550 hc         1 9UY       0.050700
     54 H12          9.1290     1.2130    -6.9760 ha         1 9UY       0.117000
     55 H13          8.6100     2.3580    -9.0130 ha         1 9UY       0.083500
     56 H14          7.9440     3.8100    -8.0280 ha         1 9UY       0.083500
     57 H15         10.4690     2.4750    -5.2520 hc         1 9UY       0.057700
     58 H16         10.7780     4.3730    -3.6740 hc         1 9UY       0.004700
     59 H17          9.0540     4.7500    -3.7850 hc         1 9UY       0.004700
     60 H18         10.0960     4.9520    -5.2000 hc         1 9UY       0.004700
     61 H19          5.8050    -1.2490    -4.8450 hn         1 9UY       0.122700
     62 H20          4.5880    -2.6030    -1.5410 hc         1 9UY       0.024700
     63 H21          5.2950    -3.1420    -3.0710 hc         1 9UY       0.024700
     64 H22          3.3290    -3.5240    -6.3950 hc         1 9UY       0.009700
     65 H23          4.6390    -2.9020    -5.3840 hc         1 9UY       0.009700
     66 H24          4.9790    -5.1600    -4.4340 hc         1 9UY       0.012700
     67 H25          3.6680    -5.7830    -5.4450 hc         1 9UY       0.012700
     68 H27          0.8090    -5.3890    -5.4950 hc         1 9UY      -0.005967
     69 H28          1.1310    -3.9180    -6.4240 hc         1 9UY      -0.005967
     70 H29         -0.3140    -4.0240    -5.4080 hc         1 9UY      -0.005967
     71 H30          1.9470    -2.6450    -1.4040 hn         1 9UY       0.136700
     72 H31         -1.0830    -3.3720    -3.5270 hc         1 9UY       0.046700
     73 H32         -0.6400    -2.8800    -1.8870 hc         1 9UY       0.046700
     74 H33         -4.0280    -5.3750    -1.7160 hc         1 9UY       0.013700
     75 H34         -3.2310    -4.2010    -0.6580 hc         1 9UY       0.013700
     76 H35         -3.2290    -3.9580    -2.4110 hc         1 9UY       0.013700
     77 H36         -3.6950    -7.3470    -0.6870 ha         1 9UY       0.096000
     78 H37         -1.3130    -9.2790    -0.7350 ha         1 9UY       0.096000
     79 H38         -3.0650    -9.6310    -0.1640 ha         1 9UY       0.096000
@<TRIPOS>BOND
     1     1     2 1   
     2     2     3 1   
     3     2     4 1   
     4     4     5 1   
     5     4    44 1   
     6     4    45 1   
     7     5     6 1   
     8     5    46 1   
     9     5    47 1   
    10     6     7 1   
    11     6    20 2   
    12     7     8 1   
    13     7     9 2   
    14     8    48 1   
    15     8    49 1   
    16     8    50 1   
    17     9    10 1   
    18     9    21 1   
    19    10    11 1   
    20    10    51 1   
    21    10    52 1   
    22    11    12 1   
    23    11    19 2   
    24    12    13 1   
    25    12    15 1   
    26    12    53 1   
    27    13    14 2   
    28    13    54 1   
    29    14    55 1   
    30    14    56 1   
    31    15    16 1   
    32    15    17 1   
    33    15    57 1   
    34    16    58 1   
    35    16    59 1   
    36    16    60 1   
    37    17    18 2   
    38    17    19 1   
    39    20    21 1   
    40    20    22 1   
    41    21    61 1   
    42    22    23 1   
    43    22    62 1   
    44    22    63 1   
    45    23    24 2   
    46    23    33 1   
    47    24    25 1   
    48    24    30 1   
    49    25    26 1   
    50    25    64 1   
    51    25    65 1   
    52    26    27 1   
    53    26    66 1   
    54    26    67 1   
    55    27    28 1   
    56    27    29 1   
    57    30    31 1   
    58    30    32 2   
    59    31    68 1   
    60    31    69 1   
    61    31    70 1   
    62    32    33 1   
    63    32    34 1   
    64    33    71 1   
    65    34    35 1   
    66    34    72 1   
    67    34    73 1   
    68    35    36 1   
    69    35    43 2   
    70    36    37 1   
    71    36    38 2   
    72    37    74 1   
    73    37    75 1   
    74    37    76 1   
    75    38    39 1   
    76    38    41 1   
    77    39    40 2   
    78    39    77 1   
    79    40    78 1   
    80    40    79 1   
    81    41    42 2   
    82    41    43 1   
@<TRIPOS>SUBSTRUCTURE
     1 9UY         1 TEMP              0 ****  ****    0 ROOT
