@<TRIPOS>MOLECULE
molecule
   15    15     1     0     0
SMALL
bcc


@<TRIPOS>ATOM
      1 O05          0.0000     0.0000     0.0000 o          1 9UZ      -0.606500
      2 C04          1.2120     0.0000     0.0000 c          1 9UZ       0.698500
      3 N03          1.8700     0.0000     1.1700 ns         1 9UZ      -0.572500
      4 C06          1.9510    -0.0070    -1.3120 c3         1 9UZ      -0.158400
      5 C07          3.3000    -0.7100    -1.1270 c3         1 9UZ      -0.090400
      6 C08          4.0620    -0.0110     0.0050 c3         1 9UZ      -0.158400
      7 C02          3.2090    -0.0110     1.2450 c          1 9UZ       0.698500
      8 O01          3.7430    -0.0190     2.3330 o          1 9UZ      -0.606500
      9 H1           1.3410     0.0090     2.0190 hn         1 9UZ       0.346500
     10 H2           1.3660    -0.5390    -2.0530 hc         1 9UZ       0.082200
     11 H3           2.1170     1.0130    -1.6380 hc         1 9UZ       0.082200
     12 H4           3.1360    -1.7480    -0.8670 hc         1 9UZ       0.060200
     13 H5           3.8730    -0.6440    -2.0440 hc         1 9UZ       0.060200
     14 H6           4.2800     1.0100    -0.2840 hc         1 9UZ       0.082200
     15 H7           4.9850    -0.5440     0.2010 hc         1 9UZ       0.082200
@<TRIPOS>BOND
     1     8     7 2
     2     7     3 1
     3     7     6 1
     4     3     2 1
     5     6     5 1
     6     1     2 2
     7     2     4 1
     8     5     4 1
     9     3     9 1
    10     4    10 1
    11     4    11 1
    12     5    12 1
    13     5    13 1
    14     6    14 1
    15     6    15 1
@<TRIPOS>SUBSTRUCTURE
     1 9UZ         1 TEMP              0 ****  ****    0 ROOT
