@<TRIPOS>MOLECULE
9V1
   81    84     1     0     0
SMALL
bcc


@<TRIPOS>ATOM
      1 O2D          0.0000     0.0000     0.0000 o          1 9V1      -0.913300
      2 CGD          1.3420     0.0000     0.0000 c          1 9V1       0.974600
      3 O1D          1.9470     0.0000     1.0470 o          1 9V1      -0.913300
      4 CBD          2.0950    -0.0020    -1.3050 c3         1 9V1      -0.154400
      5 CAD          3.6000    -0.0020    -1.0260 c3         1 9V1       0.073900
      6 C3D          4.3530    -0.0030    -2.3320 cc         1 9V1      -0.142300
      7 C2D          4.7710     1.1320    -3.0540 cc         1 9V1      -0.136300
      8 CMD          4.5460     2.5700    -2.6640 c3         1 9V1       0.102200
      9 C1D          5.4080     0.6950    -4.1590 cd         1 9V1      -0.366600
     10 CHD          6.0230     1.5630    -5.2260 c3         1 9V1       0.062600
     11 C4C          7.4180     1.9540    -4.8120 c2         1 9V1       0.453300
     12 C3C          8.3810     2.7650    -5.6530 c3         1 9V1      -0.152000
     13 CAC          8.7040     2.0360    -6.9590 c3         1 9V1      -0.017400
     14 CBC          9.5660     2.9380    -7.8450 c3         1 9V1       0.001900
     15 C2C          9.6350     2.8640    -4.7580 c3         1 9V1      -0.196700
     16 CMC          9.9400     4.3230    -4.4120 c3         1 9V1       0.029900
     17 C1C          9.2220     2.0930    -3.5210 c          1 9V1       0.717500
     18 OC           9.9110     1.9120    -2.5380 o          1 9V1      -0.542100
     19 NC           7.9690     1.6500    -3.6880 ne         1 9V1      -0.546100
     20 C4D          4.7560    -1.0910    -3.0200 cd         1 9V1      -0.302600
     21 ND           5.3980    -0.6690    -4.1460 na         1 9V1       0.429900
     22 CHA          4.5310    -2.5250    -2.6160 c3         1 9V1       0.175200
     23 C1A          3.1710    -2.9720    -3.0860 cc         1 9V1      -0.320600
     24 C2A          2.8780    -3.4580    -4.3100 cd         1 9V1      -0.140300
     25 CAA          3.8470    -3.6520    -5.4480 c3         1 9V1       0.077900
     26 CBA          4.4530    -5.0550    -5.3670 c3         1 9V1      -0.134400
     27 CGA          5.4220    -5.2500    -6.5060 c          1 9V1       0.981600
     28 O2A          5.6090    -4.3570    -7.2990 o          1 9V1      -0.918800
     29 O1A          6.0770    -6.4140    -6.6380 o          1 9V1      -0.918800
     30 C3A          1.5010    -3.7520    -4.3280 cd         1 9V1      -0.150300
     31 CMA          0.7250    -4.3180    -5.4890 c3         1 9V1       0.102200
     32 C4A          1.0040    -3.4340    -3.1160 cc         1 9V1      -0.339600
     33 NA           2.0260    -2.9610    -2.3470 na         1 9V1       0.434900
     34 CHB         -0.4320    -3.5820    -2.6830 c3         1 9V1       0.044600
     35 C1B         -0.6660    -4.9890    -2.1940 cc         1 9V1       0.510600
     36 C2B         -1.9050    -5.4760    -1.7170 cc         1 9V1      -0.204800
     37 CMB         -3.1910    -4.6980    -1.6130 c3         1 9V1       0.076100
     38 C3B         -1.7200    -6.7850    -1.3690 cd         1 9V1      -0.198200
     39 CAB         -2.6830    -7.6810    -0.8430 cf         1 9V1      -0.085000
     40 CBB         -2.3350    -8.9450    -0.5510 c2         1 9V1      -0.153000
     41 C4B         -0.2720    -7.0680    -1.6670 c          1 9V1       0.721700
     42 OB           0.3100    -8.1200    -1.5030 o          1 9V1      -0.506100
     43 NB           0.2490    -5.9270    -2.1580 nd         1 9V1      -0.566100
     44 H2           1.8330     0.8820    -1.8740 hc         1 9V1       0.012700
     45 H3           1.8330    -0.8870    -1.8710 hc         1 9V1       0.012700
     46 H4           3.8620    -0.8860    -0.4570 hc         1 9V1       0.019200
     47 H5           3.8620     0.8830    -0.4590 hc         1 9V1       0.019200
     48 H6           4.9020     3.2190    -3.4550 hc         1 9V1      -0.005300
     49 H7           3.4880     2.7410    -2.5060 hc         1 9V1      -0.005300
     50 H8           5.0870     2.7850    -1.7500 hc         1 9V1      -0.005300
     51 H9           5.4230     2.4550    -5.3560 hc         1 9V1       0.031200
     52 H10          6.0640     1.0150    -6.1590 hc         1 9V1       0.031200
     53 H11          7.9760     3.7510    -5.8490 hc         1 9V1       0.049700
     54 H12          7.7830     1.7950    -7.4760 hc         1 9V1       0.027700
     55 H13          9.2440     1.1230    -6.7380 hc         1 9V1       0.027700
     56 H14          9.1930     3.9540    -7.7980 hc         1 9V1      -0.000300
     57 H15          9.5240     2.5850    -8.8690 hc         1 9V1      -0.000300
     58 H16         10.5920     2.9120    -7.4970 hc         1 9V1      -0.000300
     59 H17         10.4830     2.3900    -5.2370 hc         1 9V1       0.059700
     60 H18          9.1100     4.7440    -3.8570 hc         1 9V1       0.004033
     61 H19         10.0870     4.8870    -5.3250 hc         1 9V1       0.004033
     62 H20         10.8390     4.3710    -3.8100 hc         1 9V1       0.004033
     63 H21          5.8020    -1.2620    -4.8440 hn         1 9V1       0.122700
     64 H22          4.5860    -2.6090    -1.5380 hc         1 9V1       0.024700
     65 H23          5.2920    -3.1500    -3.0670 hc         1 9V1       0.024700
     66 H24          3.3250    -3.5380    -6.3900 hc         1 9V1       0.009700
     67 H25          4.6360    -2.9140    -5.3800 hc         1 9V1       0.009700
     68 H26          4.9750    -5.1700    -4.4250 hc         1 9V1       0.013200
     69 H27          3.6630    -5.7940    -5.4350 hc         1 9V1       0.013200
     70 H29         -0.3170    -4.0360    -5.3980 hc         1 9V1      -0.005633
     71 H30          1.1250    -3.9250    -6.4160 hc         1 9V1      -0.005633
     72 H31          0.8090    -5.3980    -5.4880 hc         1 9V1      -0.005633
     73 H32          1.9460    -2.6490    -1.3990 hn         1 9V1       0.137700
     74 H33         -1.0850    -3.3770    -3.5220 hc         1 9V1       0.046700
     75 H34         -0.6420    -2.8820    -1.8830 hc         1 9V1       0.046700
     76 H35         -3.9930    -5.2630    -2.0720 hc         1 9V1       0.013367
     77 H36         -3.4240    -4.5230    -0.5690 hc         1 9V1       0.013367
     78 H37         -3.0810    -3.7480    -2.1220 hc         1 9V1       0.013367
     79 H38         -3.6990    -7.3470    -0.6750 ha         1 9V1       0.095000
     80 H39         -1.3190    -9.2800    -0.7180 ha         1 9V1       0.095500
     81 H40         -3.0720    -9.6300    -0.1480 ha         1 9V1       0.095500
@<TRIPOS>BOND
     1     1     2 1   
     2     2     3 1   
     3     2     4 1   
     4     4     5 1   
     5     4    44 1   
     6     4    45 1   
     7     5     6 1   
     8     5    46 1   
     9     5    47 1   
    10     6     7 1   
    11     6    20 2   
    12     7     8 1   
    13     7     9 2   
    14     8    48 1   
    15     8    49 1   
    16     8    50 1   
    17     9    10 1   
    18     9    21 1   
    19    10    11 1   
    20    10    51 1   
    21    10    52 1   
    22    11    12 1   
    23    11    19 2   
    24    12    13 1   
    25    12    15 1   
    26    12    53 1   
    27    13    14 1   
    28    13    54 1   
    29    13    55 1   
    30    14    56 1   
    31    14    57 1   
    32    14    58 1   
    33    15    16 1   
    34    15    17 1   
    35    15    59 1   
    36    16    60 1   
    37    16    61 1   
    38    16    62 1   
    39    17    18 2   
    40    17    19 1   
    41    20    21 1   
    42    20    22 1   
    43    21    63 1   
    44    22    23 1   
    45    22    64 1   
    46    22    65 1   
    47    23    24 2   
    48    23    33 1   
    49    24    25 1   
    50    24    30 1   
    51    25    26 1   
    52    25    66 1   
    53    25    67 1   
    54    26    27 1   
    55    26    68 1   
    56    26    69 1   
    57    27    28 1   
    58    27    29 1   
    59    30    31 1   
    60    30    32 2   
    61    31    70 1   
    62    31    71 1   
    63    31    72 1   
    64    32    33 1   
    65    32    34 1   
    66    33    73 1   
    67    34    35 1   
    68    34    74 1   
    69    34    75 1   
    70    35    36 1   
    71    35    43 2   
    72    36    37 1   
    73    36    38 2   
    74    37    76 1   
    75    37    77 1   
    76    37    78 1   
    77    38    39 1   
    78    38    41 1   
    79    39    40 2   
    80    39    79 1   
    81    40    80 1   
    82    40    81 1   
    83    41    42 2   
    84    41    43 1   
@<TRIPOS>SUBSTRUCTURE
     1 9V1         1 TEMP              0 ****  ****    0 ROOT
