@<TRIPOS>MOLECULE
molecule
   81    84     1     0     0
SMALL
bcc


@<TRIPOS>ATOM
      1 O2D          0.0000     0.0000     0.0000 o          1 9V1      -0.865800
      2 CGD          1.3420     0.0000     0.0000 c          1 9V1       0.882600
      3 O1D          1.9470     0.0000     1.0470 o          1 9V1      -0.865800
      4 CBD          2.0950    -0.0020    -1.3050 c3         1 9V1      -0.190400
      5 CAD          3.6000    -0.0020    -1.0260 c3         1 9V1       0.009900
      6 C3D          4.3530    -0.0030    -2.3320 cc         1 9V1      -0.141300
      7 C2D          4.7710     1.1320    -3.0540 cc         1 9V1      -0.128300
      8 CMD          4.5460     2.5700    -2.6640 c3         1 9V1      -0.007800
      9 C1D          5.4080     0.6950    -4.1590 cd         1 9V1      -0.150600
     10 CHD          6.0230     1.5630    -5.2260 c3         1 9V1      -0.027400
     11 C4C          7.4180     1.9540    -4.8120 c2         1 9V1       0.515300
     12 C3C          8.3810     2.7650    -5.6530 c3         1 9V1      -0.192000
     13 CAC          8.7040     2.0360    -6.9590 c3         1 9V1      -0.070400
     14 CBC          9.5660     2.9380    -7.8450 c3         1 9V1      -0.091100
     15 C2C          9.6350     2.8640    -4.7580 c3         1 9V1      -0.221700
     16 CMC          9.9400     4.3230    -4.4120 c3         1 9V1      -0.069100
     17 C1C          9.2220     2.0930    -3.5210 c          1 9V1       0.716500
     18 OC           9.9110     1.9120    -2.5380 o          1 9V1      -0.508100
     19 NC           7.9690     1.6500    -3.6880 ne         1 9V1      -0.640100
     20 C4D          4.7560    -1.0910    -3.0200 cd         1 9V1      -0.089600
     21 ND           5.3980    -0.6690    -4.1460 na         1 9V1      -0.141100
     22 CHA          4.5310    -2.5250    -2.6160 c3         1 9V1       0.071200
     23 C1A          3.1710    -2.9720    -3.0860 cd         1 9V1      -0.107600
     24 C2A          2.8780    -3.4580    -4.3100 cc         1 9V1      -0.138300
     25 CAA          3.8470    -3.6520    -5.4480 c3         1 9V1       0.013900
     26 CBA          4.4530    -5.0550    -5.3670 c3         1 9V1      -0.178400
     27 CGA          5.4220    -5.2500    -6.5060 c          1 9V1       0.889600
     28 O2A          5.6090    -4.3570    -7.2990 o          1 9V1      -0.869800
     29 O1A          6.0770    -6.4140    -6.6380 o          1 9V1      -0.869800
     30 C3A          1.5010    -3.7520    -4.3280 cc         1 9V1      -0.142300
     31 CMA          0.7250    -4.3180    -5.4890 c3         1 9V1      -0.007800
     32 C4A          1.0040    -3.4340    -3.1160 cd         1 9V1      -0.126600
     33 NA           2.0260    -2.9610    -2.3470 na         1 9V1      -0.134100
     34 CHB         -0.4320    -3.5820    -2.6830 c3         1 9V1      -0.039400
     35 C1B         -0.6660    -4.9890    -2.1940 cc         1 9V1       0.551600
     36 C2B         -1.9050    -5.4760    -1.7170 cc         1 9V1      -0.219800
     37 CMB         -3.1910    -4.6980    -1.6130 c3         1 9V1      -0.035900
     38 C3B         -1.7200    -6.7850    -1.3690 cd         1 9V1      -0.185200
     39 CAB         -2.6830    -7.6810    -0.8430 cf         1 9V1      -0.118000
     40 CBB         -2.3350    -8.9450    -0.5510 c2         1 9V1      -0.196000
     41 C4B         -0.2720    -7.0680    -1.6670 c          1 9V1       0.699700
     42 OB           0.3100    -8.1200    -1.5030 o          1 9V1      -0.478100
     43 NB           0.2490    -5.9270    -2.1580 nd         1 9V1      -0.628100
     44 H2           1.8330    -0.8870    -1.8710 hc         1 9V1       0.037200
     45 H3           1.8330     0.8820    -1.8740 hc         1 9V1       0.037200
     46 H4           3.8620    -0.8860    -0.4570 hc         1 9V1       0.045200
     47 H5           3.8620     0.8830    -0.4590 hc         1 9V1       0.045200
     48 H6           5.0710     2.7800    -1.7400 hc         1 9V1       0.027700
     49 H7           3.4860     2.7450    -2.5250 hc         1 9V1       0.027700
     50 H8           4.9200     3.2190    -3.4470 hc         1 9V1       0.027700
     51 H9           5.4230     2.4550    -5.3560 hc         1 9V1       0.071700
     52 H10          6.0630     1.0150    -6.1590 hc         1 9V1       0.071700
     53 H11          7.9760     3.7510    -5.8490 hc         1 9V1       0.072700
     54 H12          9.2440     1.1230    -6.7380 hc         1 9V1       0.055700
     55 H13          7.7830     1.7950    -7.4760 hc         1 9V1       0.055700
     56 H14          9.1830     3.9500    -7.8100 hc         1 9V1       0.030700
     57 H15         10.5880     2.9250    -7.4870 hc         1 9V1       0.030700
     58 H16          9.5370     2.5750    -8.8660 hc         1 9V1       0.030700
     59 H17         10.4830     2.3900    -5.2370 hc         1 9V1       0.081700
     60 H18         10.0910     4.8860    -5.3250 hc         1 9V1       0.036700
     61 H19         10.8360     4.3700    -3.8060 hc         1 9V1       0.036700
     62 H20          9.1080     4.7450    -3.8610 hc         1 9V1       0.036700
     63 H21          5.8020    -1.2620    -4.8440 hn         1 9V1       0.304700
     64 H22          5.2920    -3.1500    -3.0670 hc         1 9V1       0.064700
     65 H23          4.5860    -2.6090    -1.5380 hc         1 9V1       0.064700
     66 H24          3.3250    -3.5380    -6.3900 hc         1 9V1       0.036700
     67 H25          4.6360    -2.9140    -5.3800 hc         1 9V1       0.036700
     68 H26          3.6630    -5.7940    -5.4350 hc         1 9V1       0.036200
     69 H27          4.9750    -5.1700    -4.4250 hc         1 9V1       0.036200
     70 H29         -0.3140    -4.0200    -5.4080 hc         1 9V1       0.027033
     71 H30          1.1370    -3.9400    -6.4170 hc         1 9V1       0.027033
     72 H31          0.7930    -5.3990    -5.4770 hc         1 9V1       0.027033
     73 H32          1.9460    -2.6490    -1.3990 hn         1 9V1       0.315700
     74 H33         -1.0850    -3.3770    -3.5220 hc         1 9V1       0.087200
     75 H34         -0.6420    -2.8820    -1.8830 hc         1 9V1       0.087200
     76 H35         -3.9830    -5.2400    -2.1150 hc         1 9V1       0.049033
     77 H36         -3.0650    -3.7280    -2.0790 hc         1 9V1       0.049033
     78 H37         -3.4500    -4.5660    -0.5690 hc         1 9V1       0.049033
     79 H38         -3.6990    -7.3470    -0.6750 ha         1 9V1       0.118000
     80 H39         -3.0720    -9.6300    -0.1480 ha         1 9V1       0.124500
     81 H40         -1.3190    -9.2800    -0.7180 ha         1 9V1       0.124500
@<TRIPOS>BOND
     1     3     2 1
     2    28    27 1
     3     2     1 1
     4     2     4 1
     5     5     4 1
     6     5     6 1
     7    27    29 1
     8    27    26 1
     9    25    26 1
    10    25    24 1
    11     6     7 1
    12     6    20 2
    13     8     7 1
    14    22    20 1
    15    22    23 1
    16     7     9 2
    17    24    23 2
    18    24    30 1
    19    20    21 1
    20    23    33 1
    21    31    30 1
    22    30    32 2
    23     9    21 1
    24     9    10 1
    25    33    32 1
    26    10    11 1
    27    32    34 1
    28    34    35 1
    29    11    12 1
    30    11    19 2
    31    12    13 1
    32    12    15 1
    33    19    17 1
    34    35    43 2
    35    35    36 1
    36    13    14 1
    37    43    41 1
    38    36    37 1
    39    36    38 2
    40    15    16 1
    41    15    17 1
    42    41    42 2
    43    41    38 1
    44    17    18 2
    45    38    39 1
    46    39    40 2
    47     4    44 1
    48     4    45 1
    49     5    46 1
    50     5    47 1
    51     8    48 1
    52     8    49 1
    53     8    50 1
    54    10    51 1
    55    10    52 1
    56    12    53 1
    57    13    54 1
    58    13    55 1
    59    14    56 1
    60    14    57 1
    61    14    58 1
    62    15    59 1
    63    16    60 1
    64    16    61 1
    65    16    62 1
    66    21    63 1
    67    22    64 1
    68    22    65 1
    69    25    66 1
    70    25    67 1
    71    26    68 1
    72    26    69 1
    73    31    70 1
    74    31    71 1
    75    31    72 1
    76    33    73 1
    77    34    74 1
    78    34    75 1
    79    37    76 1
    80    37    77 1
    81    37    78 1
    82    39    79 1
    83    40    80 1
    84    40    81 1
@<TRIPOS>SUBSTRUCTURE
     1 9V1         1 TEMP              0 ****  ****    0 ROOT
