@<TRIPOS>MOLECULE
molecule
   21    21     1     0     0
SMALL
bcc


@<TRIPOS>ATOM
      1 O1           0.0000     0.0000     0.0000 o          1 9V2      -0.585500
      2 C4           1.2120     0.0000     0.0000 c          1 9V2       0.712500
      3 N            1.9880     0.0000     1.0920 ns         1 9V2      -0.578500
      4 C1           2.0890    -0.0050    -1.2330 c3         1 9V2      -0.156000
      5 C3           1.8440     1.2490    -2.0740 c3         1 9V2      -0.063400
      6 C7           0.3860     1.2750    -2.5380 c3         1 9V2      -0.098100
      7 C5           1.8430    -1.2680    -2.0620 c3         1 9V2      -0.075100
      8 C2           3.5200    -0.0040    -0.6590 c3         1 9V2      -0.171400
      9 C6           3.3010    -0.0010     0.8380 c          1 9V2       0.703500
     10 O2           4.1790    -0.0010     1.6750 o          1 9V2      -0.588500
     11 H1           1.6150     0.0010     2.0210 hn         1 9V2       0.344500
     12 H2           2.0480     2.1300    -1.4770 hc         1 9V2       0.048700
     13 H3           2.4970     1.2380    -2.9380 hc         1 9V2       0.048700
     14 H4           0.0980     0.2880    -2.8790 hc         1 9V2       0.044700
     15 H5          -0.2500     1.5730    -1.7140 hc         1 9V2       0.044700
     16 H6           0.2790     1.9840    -3.3510 hc         1 9V2       0.044700
     17 H7           2.2710    -2.1230    -1.5530 hc         1 9V2       0.049367
     18 H8           2.3060    -1.1570    -3.0350 hc         1 9V2       0.049367
     19 H9           0.7770    -1.4170    -2.1850 hc         1 9V2       0.049367
     20 H10          4.0520    -0.8970    -0.9630 hc         1 9V2       0.088700
     21 H11          4.0520     0.8880    -0.9660 hc         1 9V2       0.088700
@<TRIPOS>BOND
     1     6     5 1
     2     5     4 1
     3     1     2 2
     4     3     2 1
     5     3     9 1
     6     2     4 1
     7     4     8 1
     8     4     7 1
     9     9    10 2
    10     9     8 1
    11     3    11 1
    12     5    12 1
    13     5    13 1
    14     6    14 1
    15     6    15 1
    16     6    16 1
    17     7    17 1
    18     7    18 1
    19     7    19 1
    20     8    20 1
    21     8    21 1
@<TRIPOS>SUBSTRUCTURE
     1 9V2         1 TEMP              0 ****  ****    0 ROOT
