@<TRIPOS>MOLECULE
molecule
   27    28     1     0     0
SMALL
bcc


@<TRIPOS>ATOM
      1 C1           0.0000     0.0000     0.0000 ca         1 9V5      -0.064000
      2 C2           1.3820     0.0000     0.0000 ca         1 9V5      -0.144000
      3 C3          -0.6910    -0.0010     1.1960 ca         1 9V5      -0.144000
      4 C4           2.0730     0.0000     1.1970 ca         1 9V5      -0.020000
      5 C5          -0.0010    -0.0000     2.3930 ca         1 9V5      -0.020000
      6 C6           4.0930     1.9830     4.3230 ca         1 9V5      -0.015000
      7 C7           4.4780     3.2870     4.5750 ca         1 9V5      -0.113000
      8 C8           2.1760     3.9480     4.6620 ca         1 9V5      -0.151000
      9 C10          1.3820     0.0010     2.3940 ca         1 9V5      -0.308500
     10 S18          2.2620     0.0000     3.9200 sy         1 9V5       1.279600
     11 O16          1.3200    -0.3420     4.9270 o          1 9V5      -0.606300
     12 O17          3.4580    -0.7340     3.6930 o          1 9V5      -0.606300
     13 C11          2.7510     1.6620     4.2410 ca         1 9V5      -0.213500
     14 C12          3.5190     4.2700     4.7440 ca         1 9V5       0.077400
     15 Cl           3.9870     5.9170     5.0350 cl         1 9V5      -0.064400
     16 C9           1.7930     2.6440     4.4110 ca         1 9V5       0.001800
     17 N13          0.5010     2.9760     4.2500 no         1 9V5       0.145200
     18 O15         -0.1120     2.9480     3.0440 o          1 9V5      -0.145500
     19 O14         -0.4640     3.0290     5.2620 o          1 9V5      -0.145500
     20 H1          -0.5420    -0.0000    -0.9380 ha         1 9V5       0.136000
     21 H2           1.9240     0.0010    -0.9380 ha         1 9V5       0.141000
     22 H3          -1.7740    -0.0010     1.1960 ha         1 9V5       0.141000
     23 H4           3.1570     0.0000     1.1970 ha         1 9V5       0.151000
     24 H5          -0.5430    -0.0010     3.3310 ha         1 9V5       0.151000
     25 H7           5.5300     3.5380     4.6400 ha         1 9V5       0.164000
     26 H8           1.4250     4.7170     4.7950 ha         1 9V5       0.188000
     27 H6           4.8440     1.2130     4.1910 ha         1 9V5       0.184000
@<TRIPOS>BOND
     1     1     2 ar
     2     1     3 ar
     3     2     4 ar
     4     3     5 ar
     5     4     9 ar
     6     5     9 ar
     7     6     7 ar
     8     6    13 ar
     9     7    14 ar
    10     8    14 ar
    11     8    16 ar
    12     9    10 1
    13    10    11 2
    14    10    12 2
    15    10    13 1
    16    13    16 ar
    17    14    15 1
    18    16    17 1
    19    17    18 1
    20    17    19 1
    21     1    20 1
    22     2    21 1
    23     3    22 1
    24     4    23 1
    25     5    24 1
    26     6    27 1
    27     7    25 1
    28     8    26 1
@<TRIPOS>SUBSTRUCTURE
     1 9V5         1 TEMP              0 ****  ****    0 ROOT
