@<TRIPOS>MOLECULE
9V7
   16    16     1     0     0
SMALL
bcc


@<TRIPOS>ATOM
      1 N            0.0000     0.0000     0.0000 ns         1 9V7      -0.109100
      2 C            1.3480     0.0000     0.0000 c          1 9V7       0.953600
      3 O            1.9550     0.0000     1.0520 o          1 9V7      -0.898800
      4 C1          -0.7000    -0.1070     1.2070 ca         1 9V7       0.009600
      5 C2          -1.9170     0.5410     1.3660 ca         1 9V7      -0.137500
      6 C3          -2.6050     0.4340     2.5590 ca         1 9V7      -0.107000
      7 C4          -2.0830    -0.3190     3.5940 ca         1 9V7      -0.183000
      8 C5          -0.8700    -0.9650     3.4400 ca         1 9V7      -0.107000
      9 C6          -0.1800    -0.8660     2.2470 ca         1 9V7      -0.137500
     10 O1           2.0210    -0.0010    -1.1670 o          1 9V7      -0.898800
     11 H1          -0.5000     0.0510    -0.8650 hn         1 9V7       0.152500
     12 H2          -2.3090     1.1620     0.5690 ha         1 9V7       0.110000
     13 H3          -3.5530     0.9430     2.6850 ha         1 9V7       0.081500
     14 H4          -2.6240    -0.4020     4.5280 ha         1 9V7       0.081000
     15 H5          -0.4630    -1.5540     4.2530 ha         1 9V7       0.081500
     16 H6           0.5760    -1.6400     2.2970 ha         1 9V7       0.110000
@<TRIPOS>BOND
     1     1     2 1   
     2     1     4 1   
     3     1    11 1   
     4     2     3 1   
     5     2    10 1   
     6     4     5 ar  
     7     4     9 ar  
     8     5     6 ar  
     9     5    12 1   
    10     6     7 ar  
    11     6    13 1   
    12     7     8 ar  
    13     7    14 1   
    14     8     9 ar  
    15     8    15 1   
    16     9    16 1   
@<TRIPOS>SUBSTRUCTURE
     1 9V7         1 TEMP              0 ****  ****    0 ROOT
