@<TRIPOS>MOLECULE
molecule
   16    16     1     0     0
SMALL
bcc


@<TRIPOS>ATOM
      1 N            0.0000     0.0000     0.0000 ns         1 9V7      -0.508100
      2 C            1.3480     0.0000     0.0000 c          1 9V7       0.982600
      3 O            1.9550     0.0000     1.0520 o          1 9V7      -0.850300
      4 C1          -0.7000    -0.1070     1.2070 ca         1 9V7       0.136600
      5 C2          -1.9170     0.5410     1.3660 ca         1 9V7      -0.157000
      6 C3          -2.6050     0.4340     2.5590 ca         1 9V7      -0.132500
      7 C4          -2.0830    -0.3190     3.5940 ca         1 9V7      -0.199000
      8 C5          -0.8700    -0.9650     3.4400 ca         1 9V7      -0.132500
      9 C6          -0.1800    -0.8660     2.2470 ca         1 9V7      -0.157000
     10 O1           2.0210    -0.0010    -1.1670 o          1 9V7      -0.850300
     11 H1          -0.5000     0.0510    -0.8650 hn         1 9V7       0.296500
     12 H2          -2.3090     1.1620     0.5690 ha         1 9V7       0.131500
     13 H3          -3.5530     0.9430     2.6850 ha         1 9V7       0.104500
     14 H4          -2.6240    -0.4020     4.5280 ha         1 9V7       0.099000
     15 H5          -0.4630    -1.5540     4.2530 ha         1 9V7       0.104500
     16 H6           0.5760    -1.6400     2.2970 ha         1 9V7       0.131500
@<TRIPOS>BOND
     1     8     7 ar
     2     8     9 ar
     3     7     6 ar
     4     3     2 1
     5     9     4 ar
     6     6     5 ar
     7     4     5 ar
     8     4     1 1
     9     2     1 1
    10     2    10 1
    11     1    11 1
    12     5    12 1
    13     6    13 1
    14     7    14 1
    15     8    15 1
    16     9    16 1
@<TRIPOS>SUBSTRUCTURE
     1 9V7         1 TEMP              0 ****  ****    0 ROOT
