@<TRIPOS>MOLECULE
molecule
   56    60     1     0     0
SMALL
bcc


@<TRIPOS>ATOM
      1 N3           0.0000     0.0000     0.0000 n          1 9V8      -0.492800
      2 C4           1.4810     0.0000     0.0000 c3         1 9V8       0.142000
      3 C5           1.8710     0.0000     1.4940 cx         1 9V8      -0.165200
      4 C6           2.0340     1.3490     2.1970 cx         1 9V8      -0.097700
      5 C7           2.8340     1.3730     3.5010 c3         1 9V8       0.147000
      6 C15         -4.4420    -1.0670    -1.2900 ca         1 9V8      -0.108300
      7 C17         -7.1080    -0.6010    -0.7270 ca         1 9V8      -0.030000
      8 C20         -5.1090    -0.0280    -1.9130 ca         1 9V8      -0.029500
      9 C21          3.6570     3.0220     5.0940 c          1 9V8       0.679700
     10 C22          3.8070     4.4180     5.5560 ca         1 9V8      -0.181600
     11 C24          3.2460     5.4630     4.8090 ca         1 9V8      -0.069000
     12 C26          4.4960     4.6880     6.7300 ca         1 9V8       0.027000
     13 C28          4.0700     7.0480     6.3940 ca         1 9V8      -0.053200
     14 C1           0.6520     0.6020     2.2230 cx         1 9V8      -0.165200
     15 C11         -0.8270    -0.6800    -0.8210 c          1 9V8       0.778100
     16 C14         -2.9890    -1.3220    -1.5980 c3         1 9V8       0.216700
     17 C16         -6.4420     0.2050    -1.6300 ca         1 9V8      -0.191300
     18 C18         -6.4410    -1.6380    -0.1010 ca         1 9V8      -0.191300
     19 C19         -5.1070    -1.8710    -0.3830 ca         1 9V8      -0.029500
     20 C2          -0.3670     0.9080     1.1100 c3         1 9V8       0.142000
     21 C25          3.3770     6.7550     5.2220 ca         1 9V8      -0.150000
     22 C27          4.6340     6.0110     7.1600 ca         1 9V8       0.005400
     23 C32         -7.1680     1.3380    -2.3080 c3         1 9V8       0.677700
     24 C36         -7.1680    -2.5170     0.8840 c3         1 9V8       0.677700
     25 F33         -8.4950     1.3720    -1.8650 f          1 9V8      -0.218967
     26 F34         -6.5400     2.5480    -1.9950 f          1 9V8      -0.218967
     27 F35         -7.1450     1.1440    -3.6930 f          1 9V8      -0.218967
     28 F37         -6.5420    -2.4330     2.1330 f          1 9V8      -0.218967
     29 F38         -8.4950    -2.0910     0.9980 f          1 9V8      -0.218967
     30 F39         -7.1390    -3.8410     0.4360 f          1 9V8      -0.218967
     31 N10          2.9820     2.7560     3.9580 ns         1 9V8      -0.584900
     32 N29          4.3650     8.2140     7.0560 na         1 9V8      -0.057100
     33 N30          5.1020     7.8550     8.1940 nc         1 9V8      -0.133400
     34 N31          5.2410     6.5760     8.2300 nd         1 9V8      -0.197400
     35 O12         -0.3680    -1.3960    -1.6880 o          1 9V8      -0.605000
     36 O13         -2.1600    -0.5620    -0.6790 os         1 9V8      -0.437900
     37 O23          4.1420     2.1130     5.7400 o          1 9V8      -0.604100
     38 H1           1.8570    -0.8920    -0.4870 h1         1 9V8       0.064450
     39 H2           1.8570     0.8920    -0.4870 h1         1 9V8       0.064450
     40 H3           2.2360    -0.9000     1.9750 hc         1 9V8       0.105200
     41 H4           2.0740     2.2070     1.5370 hc         1 9V8       0.088700
     42 H5           2.3120     0.7970     4.2560 h1         1 9V8       0.063700
     43 H6           3.8140     0.9420     3.3310 h1         1 9V8       0.063700
     44 H7          -8.1530    -0.4180    -0.5060 ha         1 9V8       0.172000
     45 H8          -4.5870     0.6030    -2.6210 ha         1 9V8       0.155500
     46 H9           2.7040     5.2430     3.8970 ha         1 9V8       0.131000
     47 H10          4.8160     3.8750     7.3700 ha         1 9V8       0.176000
     48 H11          0.3720     0.0130     3.0880 hc         1 9V8       0.105200
     49 H12         -2.7760    -2.3780    -1.4870 h1         1 9V8       0.064700
     50 H13         -2.7760    -1.0160    -2.6150 h1         1 9V8       0.064700
     51 H14         -4.5840    -2.6840     0.1050 ha         1 9V8       0.155500
     52 H15         -1.3730     0.6960     1.4520 h1         1 9V8       0.064450
     53 H16         -0.2790     1.9410     0.7950 h1         1 9V8       0.064450
     54 H17          2.9400     7.5570     4.6390 ha         1 9V8       0.137000
     55 H18          2.5910     3.5050     3.4220 hn         1 9V8       0.314500
     56 H19          4.1090     9.1400     6.7780 hn         1 9V8       0.338700
@<TRIPOS>BOND
     1    27    23 1
     2    26    23 1
     3    23    25 1
     4    23    17 1
     5    28    24 1
     6     7    17 ar
     7     7    18 ar
     8    17     8 ar
     9    24    29 1
    10    24    18 1
    11    24    30 1
    12    18    19 ar
    13     8     6 ar
    14    19     6 ar
    15     6    16 1
    16    16    36 1
    17    36    15 1
    18    33    32 1
    19    33    34 2
    20    32    13 1
    21    20     1 1
    22    20    14 1
    23    15     1 1
    24    15    35 2
    25    34    22 1
    26    13    21 ar
    27    13    22 ar
    28    21    11 ar
    29     1     2 1
    30    22    12 ar
    31    14     4 1
    32    14     3 1
    33    11    10 ar
    34    12    10 ar
    35    10     9 1
    36     4     3 1
    37     4     5 1
    38     2     3 1
    39     9    31 1
    40     9    37 2
    41    31     5 1
    42     2    38 1
    43     2    39 1
    44     3    40 1
    45     4    41 1
    46     5    42 1
    47     5    43 1
    48     7    44 1
    49     8    45 1
    50    11    46 1
    51    12    47 1
    52    14    48 1
    53    16    49 1
    54    16    50 1
    55    19    51 1
    56    20    52 1
    57    20    53 1
    58    21    54 1
    59    31    55 1
    60    32    56 1
@<TRIPOS>SUBSTRUCTURE
     1 9V8         1 TEMP              0 ****  ****    0 ROOT
