@<TRIPOS>MOLECULE
9VA
   28    28     1     0     0
SMALL
bcc


@<TRIPOS>ATOM
      1 CAC          0.0000     0.0000     0.0000 c2         1 9VA       0.373200
      2 NFB          1.2650     0.0000     0.0000 n2         1 9VA      -0.436900
      3 CFA          2.0750     0.0000     1.2100 c3         1 9VA       0.043500
      4 CFD          2.5800     1.4200     1.4740 c3         1 9VA       0.243400
      5 OFE          3.4640     1.8160     0.4230 oh         1 9VA      -0.566800
      6 CEZ          1.2820    -0.4690     2.3940 c          1 9VA       0.589500
      7 OFC          1.8700    -0.8630     3.3780 o          1 9VA      -0.639500
      8 NAA         -0.0580    -0.4630     2.3950 ns         1 9VA      -0.211900
      9 CAB         -0.8300     0.0010     1.2480 c3         1 9VA      -0.053600
     10 CAH         -1.3270     1.4210     1.5190 c3         1 9VA      -0.036400
     11 CAJ         -2.2760     1.4110     2.7190 c3         1 9VA      -0.095400
     12 CAK         -2.7660     2.8100     2.9850 c          1 9VA       0.309100
     13 OAL         -2.3920     3.7270     2.2840 o          1 9VA      -0.384100
     14 NAM         -3.6190     3.0440     4.0020 nz         1 9VA       0.197600
     15 H76          2.9210    -0.6620     1.0680 h1         1 9VA       0.097700
     16 H77          1.7390     2.1010     1.5140 h1         1 9VA      -0.011800
     17 H78          3.1100     1.4450     2.4190 h1         1 9VA      -0.011800
     18 H79          3.8630     2.6410     0.6420 ho         1 9VA       0.398000
     19 H80         -0.5440    -0.7870     3.2070 hn         1 9VA       0.181500
     20 H81         -1.6790    -0.6560     1.1060 h1         1 9VA       0.043700
     21 H82         -0.4820     2.0650     1.7320 hc         1 9VA       0.049700
     22 H83         -1.8510     1.7930     0.6470 hc         1 9VA       0.049700
     23 H84         -1.7510     1.0400     3.5910 hc         1 9VA       0.059700
     24 H85         -3.1210     0.7670     2.5050 hc         1 9VA       0.059700
     25 H86         -3.1610     2.8560     4.8720 hn         1 9VA       0.249467
     26 H87         -3.9120     4.0000     3.9790 hn         1 9VA       0.249467
     27 H2          -0.5120    -0.0010    -0.9550 h4         1 9VA       0.004800
     28 HAM3        -4.4440     2.4900     3.8800 hn         1 9VA       0.249467
@<TRIPOS>BOND
     1     1     2 2   
     2     1     9 1   
     3     1    27 1   
     4     2     3 1   
     5     3     4 1   
     6     3     6 1   
     7     3    15 1   
     8     4     5 1   
     9     4    16 1   
    10     4    17 1   
    11     5    18 1   
    12     6     7 2   
    13     6     8 1   
    14     8     9 1   
    15     8    19 1   
    16     9    10 1   
    17     9    20 1   
    18    10    11 1   
    19    10    21 1   
    20    10    22 1   
    21    11    12 1   
    22    11    23 1   
    23    11    24 1   
    24    12    13 2   
    25    12    14 1   
    26    14    25 1   
    27    14    26 1   
    28    14    28 1   
@<TRIPOS>SUBSTRUCTURE
     1 9VA         1 TEMP              0 ****  ****    0 ROOT
