@<TRIPOS>MOLECULE
molecule
   28    28     1     0     0
SMALL
bcc


@<TRIPOS>ATOM
      1 CAC          0.0000     0.0000     0.0000 c2         1 9VA       0.409200
      2 NFB          1.2650     0.0000     0.0000 n2         1 9VA      -0.534900
      3 CFA          2.0750     0.0000     1.2100 c3         1 9VA       0.056500
      4 CFD          2.5800     1.4200     1.4740 c3         1 9VA       0.159400
      5 OFE          3.4640     1.8160     0.4230 oh         1 9VA      -0.582800
      6 CEZ          1.2820    -0.4690     2.3940 c          1 9VA       0.669500
      7 OFC          1.8700    -0.8630     3.3780 o          1 9VA      -0.606500
      8 NAA         -0.0580    -0.4630     2.3950 ns         1 9VA      -0.591900
      9 CAB         -0.8300     0.0010     1.2480 c3         1 9VA       0.013400
     10 CAH         -1.3270     1.4210     1.5190 c3         1 9VA      -0.087400
     11 CAJ         -2.2760     1.4110     2.7190 c3         1 9VA      -0.161400
     12 CAK         -2.7660     2.8100     2.9850 c          1 9VA       0.477100
     13 OAL         -2.3920     3.7270     2.2840 o          1 9VA      -0.385100
     14 NAM         -3.6190     3.0440     4.0020 nz         1 9VA      -0.687400
     15 H76          2.9210    -0.6620     1.0680 h1         1 9VA       0.143700
     16 H77          1.7390     2.1010     1.5140 h1         1 9VA       0.027700
     17 H78          3.1100     1.4450     2.4190 h1         1 9VA       0.027700
     18 H79          3.8630     2.6410     0.6420 ho         1 9VA       0.414000
     19 H80         -0.5440    -0.7870     3.2070 hn         1 9VA       0.321500
     20 H81         -1.6790    -0.6560     1.1060 h1         1 9VA       0.072700
     21 H82         -0.4820     2.0650     1.7320 hc         1 9VA       0.080700
     22 H83         -1.8510     1.7930     0.6470 hc         1 9VA       0.080700
     23 H84         -1.7510     1.0400     3.5910 hc         1 9VA       0.096200
     24 H85         -3.1210     0.7670     2.5050 hc         1 9VA       0.096200
     25 H86         -3.1610     2.8560     4.8720 hn         1 9VA       0.480133
     26 H87         -3.9120     4.0000     3.9790 hn         1 9VA       0.480133
     27 H2          -0.5120    -0.0010    -0.9550 h4         1 9VA       0.050800
     28 HAM3        -4.4440     2.4900     3.8800 hn         1 9VA       0.480133
@<TRIPOS>BOND
     1     1     2 2
     2     1     9 1
     3     2     3 1
     4     3     4 1
     5     3     6 1
     6     4     5 1
     7     6     8 1
     8     6     7 2
     9     8     9 1
    10     9    10 1
    11    10    11 1
    12    11    12 1
    13    12    13 2
    14    12    14 1
    15     3    15 1
    16     4    16 1
    17     4    17 1
    18     5    18 1
    19     8    19 1
    20     9    20 1
    21    10    21 1
    22    10    22 1
    23    11    23 1
    24    11    24 1
    25    14    25 1
    26    14    26 1
    27     1    27 1
    28    28    14 1
@<TRIPOS>SUBSTRUCTURE
     1 9VA         1 TEMP              0 ****  ****    0 ROOT
