@<TRIPOS>MOLECULE
9VD
   17    16     1     0     0
SMALL
bcc


@<TRIPOS>ATOM
      1 CDF          0.0000     0.0000     0.0000 c          1 9VD       0.674900
      2 ODK         -0.6030     0.9060    -0.5230 o          1 9VD      -0.523100
      3 CDE          1.5080     0.0000     0.0000 c3         1 9VD      -0.230500
      4 CDR          2.0180     0.0000     1.4420 c3         1 9VD       0.202100
      5 CDS          3.5470    -0.0000     1.4420 c3         1 9VD      -0.053100
      6 ODT          1.5420    -1.1670     2.1160 oh         1 9VD      -0.564800
      7 NDD          1.9980     1.1990    -0.6930 nz         1 9VD       0.089400
      8 H1          -0.5420    -0.8260     0.4440 h4         1 9VD       0.042200
      9 H2           1.8690    -0.8850    -0.5100 hx         1 9VD       0.122700
     10 H3           1.6570     0.8850     1.9520 h1         1 9VD       0.020700
     11 H4           3.9080    -0.7420     2.1440 hc         1 9VD       0.031033
     12 H5           3.9080    -0.2380     0.4490 hc         1 9VD       0.031033
     13 H6           3.9080     0.9790     1.7330 hc         1 9VD       0.031033
     14 H7           1.5690    -1.0250     3.0480 ho         1 9VD       0.433000
     15 H8           1.4820     1.3280    -1.5410 hn         1 9VD       0.231467
     16 H9           2.9690     1.0870    -0.9070 hn         1 9VD       0.231467
     17 HDD3         1.8760     1.9990    -0.1040 hn         1 9VD       0.231467
@<TRIPOS>BOND
     1     1     2 2   
     2     1     3 1   
     3     1     8 1   
     4     3     4 1   
     5     3     7 1   
     6     3     9 1   
     7     4     5 1   
     8     4     6 1   
     9     4    10 1   
    10     5    11 1   
    11     5    12 1   
    12     5    13 1   
    13     6    14 1   
    14     7    15 1   
    15     7    16 1   
    16     7    17 1   
@<TRIPOS>SUBSTRUCTURE
     1 9VD         1 TEMP              0 ****  ****    0 ROOT
