@<TRIPOS>MOLECULE
9VG
   56    61     1     0     0
SMALL
bcc


@<TRIPOS>ATOM
      1 CAA          0.0000     0.0000     0.0000 c3         1 9VG       0.257700
      2 OAU          1.4240     0.0000     0.0000 os         1 9VG      -0.405900
      3 CAW          2.0180     0.0000     1.2230 c          1 9VG       0.710300
      4 OAC          1.4860    -0.3250     2.2880 o          1 9VG      -0.577000
      5 CAN          3.4640     0.4240     1.1080 ce         1 9VG      -0.248200
      6 CAX          4.4220     0.5540     2.2850 c2         1 9VG      -0.014400
      7 CAB          3.9530     0.2620     3.7210 c3         1 9VG       0.055100
      8 CBJ          5.8580     1.0670     2.0440 cx         1 9VG       0.059000
      9 OAV          6.8260     0.4660     2.9390 op         1 9VG      -0.363600
     10 CBK          7.0490     0.2120     1.5260 cx         1 9VG       0.148100
     11 CAZ          8.2300     0.9130     1.1090 ca         1 9VG      -0.070300
     12 CAS          9.3290     0.2200     0.5770 ca         1 9VG      -0.123000
     13 CAY         10.4880     0.8990     0.2360 ca         1 9VG       0.180100
     14 OAF         11.5320     0.2000    -0.3020 oh         1 9VG      -0.457100
     15 CBF         10.6180     2.2860     0.4150 ca         1 9VG      -0.155600
     16 CBB         11.8140     2.9460     0.0450 c          1 9VG       0.623300
     17 OAD         12.7600     2.2910    -0.4220 o          1 9VG      -0.541100
     18 CBD         11.9150     4.3480     0.2010 ca         1 9VG      -0.130600
     19 CAQ         13.0930     5.0290    -0.1610 ca         1 9VG      -0.047000
     20 CAO         13.2050     6.4190    -0.0050 ca         1 9VG      -0.088000
     21 CAP         12.1400     7.1440     0.5240 ca         1 9VG      -0.093000
     22 CAR         10.9630     6.4780     0.8960 ca         1 9VG      -0.042000
     23 CBE         10.8370     5.0830     0.7360 ca         1 9VG      -0.140600
     24 CBC          9.6550     4.4360     1.1280 c          1 9VG       0.626300
     25 OAE          8.7220     5.1170     1.6060 o          1 9VG      -0.553100
     26 CBG          9.5320     3.0230     0.9580 ca         1 9VG      -0.105600
     27 CBA          8.3620     2.3300     1.3150 ca         1 9VG       0.057600
     28 NAT          7.2660     3.0630     1.8690 nu         1 9VG      -0.397600
     29 CBI          5.9060     2.5500     1.6080 c3         1 9VG       0.312600
     30 CAK          5.6080     2.4120     0.1310 c1         1 9VG      -0.148100
     31 CAI          5.3740     2.2490    -1.1120 cg         1 9VG      -0.176300
     32 CAM          5.1060     1.9910    -2.5670 ce         1 9VG       0.078300
     33 CAL          5.4210     0.6390    -2.8950 cf         1 9VG       0.041300
     34 CAH          5.8460    -0.0450    -1.6660 ch         1 9VG      -0.146300
     35 CAJ          6.2180    -0.5580    -0.5910 c1         1 9VG      -0.198100
     36 CBH          6.6330    -1.1300     0.7410 c3         1 9VG       0.385200
     37 OAG          7.6300    -2.1420     0.6800 oh         1 9VG      -0.572800
     38 H1          -0.3610    -0.9260     0.4310 h1         1 9VG      -0.000633
     39 H2          -0.3610     0.0890    -1.0170 h1         1 9VG      -0.000633
     40 H3          -0.3610     0.8370     0.5860 h1         1 9VG      -0.000633
     41 H4           3.8380     0.6490     0.1160 ha         1 9VG       0.139000
     42 H5           4.7430     0.5150     4.4180 hc         1 9VG       0.025033
     43 H6           3.7110    -0.7900     3.8150 hc         1 9VG       0.025033
     44 H7           3.0740     0.8550     3.9420 hc         1 9VG       0.025033
     45 H8           9.2720    -0.8520     0.4320 ha         1 9VG       0.147000
     46 H9          11.2150    -0.3520    -0.9970 ho         1 9VG       0.402000
     47 H10         13.9250     4.4710    -0.5720 ha         1 9VG       0.125000
     48 H11         14.1190     6.9260    -0.2910 ha         1 9VG       0.108000
     49 H12         12.2220     8.2170     0.6500 ha         1 9VG       0.108000
     50 H13         10.1360     7.0450     1.3060 ha         1 9VG       0.127000
     51 H14          7.4000     3.1690     2.8550 hn         1 9VG       0.285800
     52 H15          5.1500     3.1370     2.1150 h1         1 9VG       0.061700
     53 H16          5.2660     2.7760    -3.2950 ha         1 9VG       0.127000
     54 H18          4.8300     0.1090    -3.6330 ha         1 9VG       0.131000
     55 H20          5.7540    -1.5450     1.2200 h1         1 9VG       0.014700
     56 H21          7.2360    -2.9830     0.8440 ho         1 9VG       0.406000
@<TRIPOS>BOND
     1     1     2 1   
     2     1    38 1   
     3     1    39 1   
     4     1    40 1   
     5     2     3 1   
     6     3     4 2   
     7     3     5 1   
     8     5     6 2   
     9     5    41 1   
    10     6     7 1   
    11     6     8 1   
    12     7    42 1   
    13     7    43 1   
    14     7    44 1   
    15     8     9 1   
    16     8    10 1   
    17     8    29 1   
    18     9    10 1   
    19    10    11 1   
    20    10    36 1   
    21    11    12 ar  
    22    11    27 ar  
    23    12    13 ar  
    24    12    45 1   
    25    13    14 1   
    26    13    15 ar  
    27    14    46 1   
    28    15    16 1   
    29    15    26 ar  
    30    16    17 2   
    31    16    18 1   
    32    18    19 ar  
    33    18    23 ar  
    34    19    20 ar  
    35    19    47 1   
    36    20    21 ar  
    37    20    48 1   
    38    21    22 ar  
    39    21    49 1   
    40    22    23 ar  
    41    22    50 1   
    42    23    24 1   
    43    24    25 2   
    44    24    26 1   
    45    26    27 ar  
    46    27    28 1   
    47    28    29 1   
    48    28    51 1   
    49    29    30 1   
    50    29    52 1   
    51    30    31 3   
    52    31    32 1   
    53    32    33 2   
    54    32    53 1   
    55    33    34 1   
    56    33    54 1   
    57    34    35 3   
    58    35    36 1   
    59    36    37 1   
    60    36    55 1   
    61    37    56 1   
@<TRIPOS>SUBSTRUCTURE
     1 9VG         1 TEMP              0 ****  ****    0 ROOT
