@<TRIPOS>MOLECULE
molecule
   56    61     1     0     0
SMALL
bcc


@<TRIPOS>ATOM
      1 CAA          0.0000     0.0000     0.0000 c3         1 9VG       0.119700
      2 OAU          1.4240     0.0000     0.0000 os         1 9VG      -0.372900
      3 CAW          2.0180     0.0000     1.2230 c          1 9VG       0.681300
      4 OAC          1.4860    -0.3250     2.2880 o          1 9VG      -0.601000
      5 CAN          3.4640     0.4240     1.1080 ce         1 9VG      -0.370200
      6 CAX          4.4220     0.5540     2.2850 c2         1 9VG       0.099600
      7 CAB          3.9530     0.2620     3.7210 c3         1 9VG      -0.102900
      8 CBJ          5.8580     1.0670     2.0440 cx         1 9VG       0.035000
      9 OAV          6.8260     0.4660     2.9390 op         1 9VG      -0.370600
     10 CBK          7.0490     0.2120     1.5260 cx         1 9VG       0.166100
     11 CAZ          8.2300     0.9130     1.1090 ca         1 9VG      -0.075300
     12 CAS          9.3290     0.2200     0.5770 ca         1 9VG      -0.116000
     13 CAY         10.4880     0.8990     0.2360 ca         1 9VG       0.148100
     14 OAF         11.5320     0.2000    -0.3020 oh         1 9VG      -0.486100
     15 CBF         10.6180     2.2860     0.4150 ca         1 9VG      -0.134600
     16 CBB         11.8140     2.9460     0.0450 c          1 9VG       0.575300
     17 OAD         12.7600     2.2910    -0.4220 o          1 9VG      -0.505100
     18 CBD         11.9150     4.3480     0.2010 ca         1 9VG      -0.128600
     19 CAQ         13.0930     5.0290    -0.1610 ca         1 9VG      -0.078000
     20 CAO         13.2050     6.4190    -0.0050 ca         1 9VG      -0.116000
     21 CAP         12.1400     7.1440     0.5240 ca         1 9VG      -0.119000
     22 CAR         10.9630     6.4780     0.8960 ca         1 9VG      -0.075000
     23 CBE         10.8370     5.0830     0.7360 ca         1 9VG      -0.131600
     24 CBC          9.6550     4.4360     1.1280 c          1 9VG       0.578300
     25 OAE          8.7220     5.1170     1.6060 o          1 9VG      -0.514100
     26 CBG          9.5320     3.0230     0.9580 ca         1 9VG      -0.107600
     27 CBA          8.3620     2.3300     1.3150 ca         1 9VG       0.153600
     28 NAT          7.2660     3.0630     1.8690 nu         1 9VG      -0.684600
     29 CBI          5.9060     2.5500     1.6080 c3         1 9VG       0.348600
     30 CAK          5.6080     2.4120     0.1310 c1         1 9VG      -0.153100
     31 CAI          5.3740     2.2490    -1.1120 ch         1 9VG      -0.132300
     32 CAM          5.1060     1.9910    -2.5670 cf         1 9VG       0.021300
     33 CAL          5.4210     0.6390    -2.8950 ce         1 9VG       0.006300
     34 CAH          5.8460    -0.0450    -1.6660 cg         1 9VG      -0.131300
     35 CAJ          6.2180    -0.5580    -0.5910 c1         1 9VG      -0.173100
     36 CBH          6.6330    -1.1300     0.7410 c3         1 9VG       0.302200
     37 OAG          7.6300    -2.1420     0.6800 oh         1 9VG      -0.592800
     38 H1          -0.3610     0.0390    -1.0210 h1         1 9VG       0.047700
     39 H2          -0.3610     0.8640     0.5440 h1         1 9VG       0.047700
     40 H3          -0.3610    -0.9030     0.4760 h1         1 9VG       0.047700
     41 H4           2.7030     0.9910     1.6300 ha         1 9VG       0.121000
     42 H5           4.7880     0.3690     4.4020 hc         1 9VG       0.078033
     43 H6           3.5690    -0.7490     3.7770 hc         1 9VG       0.078033
     44 H7           3.1710     0.9610     3.9950 hc         1 9VG       0.078033
     45 H8           9.2740    -0.8520     0.4380 ha         1 9VG       0.178000
     46 H9          11.2520    -0.2180    -1.0990 ho         1 9VG       0.425000
     47 H10         13.9250     4.4710    -0.5720 ha         1 9VG       0.157000
     48 H11         14.1190     6.9260    -0.2910 ha         1 9VG       0.140000
     49 H12         12.2220     8.2170     0.6500 ha         1 9VG       0.140000
     50 H13         10.1360     7.0450     1.3060 ha         1 9VG       0.159000
     51 H14          7.4000     3.1680     2.8550 hn         1 9VG       0.407800
     52 H15          5.1500     3.1370     2.1150 h1         1 9VG       0.100700
     53 H16          4.2830     2.4910    -3.0630 ha         1 9VG       0.169000
     54 H18          5.9030     0.4080    -3.8370 ha         1 9VG       0.168000
     55 H20          5.7540    -1.5440     1.2200 h1         1 9VG       0.066700
     56 H21          7.2180    -2.9860     0.5940 ho         1 9VG       0.424000
@<TRIPOS>BOND
     1    17    16 2
     2    14    13 1
     3    19    20 ar
     4    19    18 ar
     5    16    18 1
     6    16    15 1
     7    13    15 ar
     8    13    12 ar
     9    20    21 ar
    10    18    23 ar
    11    15    26 ar
    12    12    11 ar
    13    37    36 1
    14    21    22 ar
    15    23    22 ar
    16    23    24 1
    17    26    24 1
    18    26    27 ar
    19    11    27 ar
    20    11    10 1
    21    24    25 2
    22    27    28 1
    23    36    10 1
    24    36    35 1
    25     9    10 1
    26     9     8 1
    27    10     8 1
    28    35    34 3
    29    28    29 1
    30     8    29 1
    31     8     6 1
    32    34    33 1
    33    29    30 1
    34     7     6 1
    35     6     5 2
    36    30    31 3
    37    33    32 2
    38    31    32 1
    39     5     3 1
    40     3     4 2
    41     3     2 1
    42     2     1 1
    43     1    38 1
    44     1    39 1
    45     1    40 1
    46     5    41 1
    47     7    42 1
    48     7    43 1
    49     7    44 1
    50    12    45 1
    51    14    46 1
    52    19    47 1
    53    20    48 1
    54    21    49 1
    55    22    50 1
    56    28    51 1
    57    29    52 1
    58    32    53 1
    59    33    54 1
    60    36    55 1
    61    37    56 1
@<TRIPOS>SUBSTRUCTURE
     1 9VG         1 TEMP              0 ****  ****    0 ROOT
