@<TRIPOS>MOLECULE
9VH
   25    25     1     0     0
SMALL
bcc


@<TRIPOS>ATOM
      1 O1           0.0000     0.0000     0.0000 o          1 9VH      -0.659867
      2 S1           1.5220     0.0000     0.0000 s6         1 9VH       0.959800
      3 O2           1.8720     0.0000     1.3770 o          1 9VH      -0.659867
      4 O3           1.8720    -1.0870    -0.8450 o          1 9VH      -0.659867
      5 C1           1.9760     1.5780    -0.7720 c3         1 9VH      -0.053600
      6 C2           3.4990     1.6980    -0.8310 c3         1 9VH      -0.020700
      7 C3           4.0610     0.6190    -1.7600 c3         1 9VH       0.103800
      8 N1           5.5220     0.7470    -1.8330 n7         1 9VH      -0.579200
      9 C4           5.9140     2.0470    -2.3920 c3         1 9VH       0.122800
     10 C5           5.4080     3.1690    -1.4820 c3         1 9VH       0.162100
     11 O4           5.7710     4.4340    -2.0370 oh         1 9VH      -0.598800
     12 C6           3.8830     3.0800    -1.3690 c3         1 9VH       0.177100
     13 O5           3.4110     4.0890    -0.4760 oh         1 9VH      -0.578800
     14 H1           1.5710     2.3950    -0.1880 h1         1 9VH       0.054200
     15 H2           1.5710     1.6180    -1.7770 h1         1 9VH       0.054200
     16 H3           3.9150     1.5700     0.1610 hc         1 9VH       0.055700
     17 H4           3.6390     0.7410    -2.7500 h1         1 9VH       0.043200
     18 H5           3.8050    -0.3600    -1.3710 h1         1 9VH       0.043200
     19 H6           5.8940     0.0130    -2.4020 hn         1 9VH       0.245800
     20 H8           6.9940     2.0990    -2.4600 h1         1 9VH      -0.000300
     21 H9           5.4800     2.1600    -3.3780 h1         1 9VH      -0.000300
     22 H10          5.8490     3.0600    -0.4990 h1         1 9VH       0.021700
     23 H11          6.4980     4.7920    -1.5550 ho         1 9VH       0.383000
     24 H12          3.4410     3.2200    -2.3480 h1         1 9VH       0.003700
     25 H13          3.0070     4.7830    -0.9700 ho         1 9VH       0.381000
@<TRIPOS>BOND
     1     1     2 1   
     2     2     3 1   
     3     2     4 1   
     4     2     5 1   
     5     5     6 1   
     6     5    14 1   
     7     5    15 1   
     8     6     7 1   
     9     6    12 1   
    10     6    16 1   
    11     7     8 1   
    12     7    17 1   
    13     7    18 1   
    14     8     9 1   
    15     8    19 1   
    16     9    10 1   
    17     9    20 1   
    18     9    21 1   
    19    10    11 1   
    20    10    12 1   
    21    10    22 1   
    22    11    23 1   
    23    12    13 1   
    24    12    24 1   
    25    13    25 1   
@<TRIPOS>SUBSTRUCTURE
     1 9VH         1 TEMP              0 ****  ****    0 ROOT
