@<TRIPOS>MOLECULE
molecule
   59    61     1     0     0
SMALL
bcc


@<TRIPOS>ATOM
      1 O4           0.0000     0.0000     0.0000 o          1 9VK      -0.835300
      2 C3           1.3420     0.0000     0.0000 c          1 9VK       0.879600
      3 O5           1.9460    -0.0010    -1.0470 o          1 9VK      -0.835300
      4 C1           2.0960     0.0000     1.3040 c3         1 9VK       0.087400
      5 O2           3.4960    -0.1180     1.0450 os         1 9VK      -0.412600
      6 C6           3.9670    -1.4660     0.9980 c3         1 9VK       0.157800
      7 C9           3.2370    -2.2220    -0.1150 c3         1 9VK      -0.104767
      8 C8           5.4710    -1.4720     0.7160 c3         1 9VK      -0.104767
      9 C7           3.6970    -2.1490     2.3400 c3         1 9VK      -0.104767
     10 C22          1.8280     1.2890     2.0390 cc         1 9VK      -0.071300
     11 C23          0.9890     1.3550     3.1480 cc         1 9VK       0.017200
     12 C26          0.2920     0.1770     3.7000 ce         1 9VK       0.010600
     13 C25         -1.0710    -0.1510     3.1660 c3         1 9VK      -0.050200
     14 C27          0.9030    -0.5240     4.6270 c2         1 9VK      -0.198200
     15 C28          0.3180    -1.7480     5.2690 c3         1 9VK      -0.017200
     16 C29         -1.1910    -1.8030     5.0220 c3         1 9VK      -0.068000
     17 C54         -1.8850    -0.7020     5.8290 c3         1 9VK      -0.084100
     18 C53         -1.7320    -3.1700     5.4460 c3         1 9VK      -0.084100
     19 C24         -1.4440    -1.5920     3.5230 c3         1 9VK      -0.062400
     20 C21          0.8710     2.6140     3.6810 cd         1 9VK      -0.143600
     21 S43          1.8510     3.7360     2.7460 ss         1 9VK      -0.228800
     22 C20          2.3810     2.4440     1.6780 cd         1 9VK       0.041600
     23 C34          3.3240     2.6210     0.5170 c3         1 9VK      -0.018800
     24 C35          0.0500     2.9710     4.8530 ca         1 9VK       0.550800
     25 C39          0.0090     4.2960     5.2940 ca         1 9VK      -0.258300
     26 C38         -0.7650     4.6140     6.3940 ca         1 9VK      -0.095000
     27 C37         -1.4750     3.5990     7.0210 ca         1 9VK      -0.288300
     28 C40         -1.3920     2.3080     6.5330 ca         1 9VK       0.419200
     29 N36         -0.6510     2.0310     5.4790 nb         1 9VK      -0.677000
     30 H2           1.7690    -0.8360     1.9110 h1         1 9VK       0.051700
     31 H3           2.1870    -2.3130     0.1390 hc         1 9VK       0.037589
     32 H4           3.3380    -1.6790    -1.0470 hc         1 9VK       0.037589
     33 H5           3.6680    -3.2100    -0.2240 hc         1 9VK       0.037589
     34 H6           5.9940    -0.9920     1.5340 hc         1 9VK       0.037589
     35 H7           5.6680    -0.9340    -0.2040 hc         1 9VK       0.037589
     36 H8           5.8160    -2.4940     0.6170 hc         1 9VK       0.037589
     37 H9           3.7730    -1.4200     3.1380 hc         1 9VK       0.037589
     38 H10          4.4240    -2.9350     2.4990 hc         1 9VK       0.037589
     39 H11          2.7000    -2.5750     2.3350 hc         1 9VK       0.037589
     40 H12         -1.0690    -0.0400     2.0880 hc         1 9VK       0.084700
     41 H13         -1.7980     0.5250     3.6000 hc         1 9VK       0.084700
     42 H14          1.8860    -0.2000     4.9480 ha         1 9VK       0.114000
     43 H15          0.5050    -1.7160     6.3360 hc         1 9VK       0.034200
     44 H16          0.7820    -2.6300     4.8450 hc         1 9VK       0.034200
     45 H17         -2.5730    -1.1510     6.5350 hc         1 9VK       0.030033
     46 H18         -1.1410    -0.1260     6.3660 hc         1 9VK       0.030033
     47 H19         -2.4300    -0.0510     5.1570 hc         1 9VK       0.030033
     48 H20         -1.2800    -3.9420     4.8350 hc         1 9VK       0.030033
     49 H21         -1.4910    -3.3460     6.4870 hc         1 9VK       0.030033
     50 H22         -2.8070    -3.1890     5.3160 hc         1 9VK       0.030033
     51 H23         -2.4920    -1.7600     3.3050 hc         1 9VK       0.041700
     52 H24         -0.8320    -2.2790     2.9510 hc         1 9VK       0.041700
     53 H25          3.5460     3.6740     0.3890 hc         1 9VK       0.057033
     54 H26          4.2420     2.0800     0.7110 hc         1 9VK       0.057033
     55 H27          2.8630     2.2370    -0.3850 hc         1 9VK       0.057033
     56 H28          0.5760     5.0640     4.7810 ha         1 9VK       0.140000
     57 H29         -0.8160     5.6330     6.7600 ha         1 9VK       0.124000
     58 H30         -2.0890     3.8160     7.8870 ha         1 9VK       0.122000
     59 H31         -1.9470     1.5160     7.0190 h4         1 9VK       0.019100
@<TRIPOS>BOND
     1     3     2 1
     2    19    13 1
     3    19    16 1
     4    13    12 1
     5     1     2 1
     6    17    16 1
     7     2     4 1
     8    16    18 1
     9    16    15 1
    10    25    26 ar
    11    25    24 ar
    12    26    27 ar
    13    12    11 1
    14    12    14 2
    15     4    10 1
    16     4     5 1
    17    15    14 1
    18    11    10 1
    19    11    20 2
    20    10    22 2
    21    20    24 1
    22    20    21 1
    23    24    29 ar
    24    22    23 1
    25    22    21 1
    26    27    28 ar
    27     5     6 1
    28    29    28 ar
    29     9     6 1
    30     6     7 1
    31     6     8 1
    32     4    30 1
    33     7    31 1
    34     7    32 1
    35     7    33 1
    36     8    34 1
    37     8    35 1
    38     8    36 1
    39     9    37 1
    40     9    38 1
    41     9    39 1
    42    13    40 1
    43    13    41 1
    44    14    42 1
    45    15    43 1
    46    15    44 1
    47    17    45 1
    48    17    46 1
    49    17    47 1
    50    18    48 1
    51    18    49 1
    52    18    50 1
    53    19    51 1
    54    19    52 1
    55    23    53 1
    56    23    54 1
    57    23    55 1
    58    25    56 1
    59    26    57 1
    60    27    58 1
    61    28    59 1
@<TRIPOS>SUBSTRUCTURE
     1 9VK         1 TEMP              0 ****  ****    0 ROOT
