@<TRIPOS>MOLECULE
molecule
   59    61     1     0     0
SMALL
bcc


@<TRIPOS>ATOM
      1 C6           0.0000     0.0000     0.0000 c3         1 9VN       0.157800
      2 C7           1.5300     0.0000     0.0000 c3         1 9VN      -0.105100
      3 C8          -0.5110     0.0000     1.4430 c3         1 9VN      -0.105100
      4 C9          -0.5100     1.2480    -0.7210 c3         1 9VN      -0.105100
      5 C3           1.2540    -2.8280    -0.6870 c          1 9VN       0.879600
      6 C1          -0.0550    -2.3950    -0.0770 c3         1 9VN       0.088400
      7 O2          -0.4760    -1.1670    -0.6730 os         1 9VN      -0.412600
      8 C22         -1.0970    -3.4570    -0.3200 cc         1 9VN      -0.064300
      9 C23         -1.5350    -4.3160     0.6820 cc         1 9VN      -0.004800
     10 C27         -1.0240    -4.2660     2.0650 ce         1 9VN      -0.080400
     11 C26         -1.7960    -3.4700     3.0760 c3         1 9VN      -0.031200
     12 C28          0.0780    -4.9270     2.3410 c2         1 9VN      -0.130200
     13 C29          0.7050    -4.9720     3.7030 c3         1 9VN      -0.033200
     14 C30          0.1540    -3.8420     4.5760 c3         1 9VN      -0.068000
     15 C51          0.5970    -4.0480     6.0250 c3         1 9VN      -0.084600
     16 C25         -1.3780    -3.8710     4.4930 c3         1 9VN      -0.068400
     17 C24          0.6760    -2.4970     4.0650 c3         1 9VN      -0.084600
     18 C21         -2.4890    -5.2140     0.2680 cd         1 9VN      -0.043100
     19 S35         -2.8290    -4.9540    -1.4380 ss         1 9VN      -0.214800
     20 C20         -1.6690    -3.6350    -1.5090 cd         1 9VN       0.030600
     21 C36         -1.3630    -2.8240    -2.7420 c3         1 9VN      -0.017800
     22 C38         -3.1240    -6.2370     1.1180 ca         1 9VN       0.064000
     23 C42         -4.5170    -6.4030     1.1270 ca         1 9VN      -0.245300
     24 C41         -5.0680    -7.3710     1.9370 ca         1 9VN       0.405200
     25 N52         -4.3050    -8.1350     2.6990 nb         1 9VN      -0.716000
     26 C40         -2.9910    -8.0110     2.7220 ca         1 9VN       0.405200
     27 C39         -2.3540    -7.0730     1.9380 ca         1 9VN      -0.245300
     28 H1           1.8910    -0.0510    -1.0200 hc         1 9VN       0.037367
     29 H2           1.8910    -0.8580     0.5540 hc         1 9VN       0.037367
     30 H3           1.8910     0.9090     0.4660 hc         1 9VN       0.037367
     31 H4          -0.5640     1.0190     1.8070 hc         1 9VN       0.037367
     32 H5          -1.4970    -0.4480     1.4770 hc         1 9VN       0.037367
     33 H6           0.1670    -0.5710     2.0660 hc         1 9VN       0.037367
     34 H7          -0.1710     1.2350    -1.7500 hc         1 9VN       0.037367
     35 H8          -1.5930     1.2620    -0.6980 hc         1 9VN       0.037367
     36 H9          -0.1270     2.1330    -0.2270 hc         1 9VN       0.037367
     37 H10          0.0740    -2.2530     0.9900 h1         1 9VN       0.045700
     38 H12         -1.5950    -2.4150     2.9290 hc         1 9VN       0.048200
     39 H13         -2.8540    -3.6600     2.9480 hc         1 9VN       0.048200
     40 H14          0.5610    -5.4710     1.5380 ha         1 9VN       0.166000
     41 H15          0.4810    -5.9240     4.1680 hc         1 9VN       0.047700
     42 H16          1.7780    -4.8580     3.6060 hc         1 9VN       0.047700
     43 H17          0.1600    -4.9620     6.4090 hc         1 9VN       0.033700
     44 H18          0.2690    -3.2100     6.6260 hc         1 9VN       0.033700
     45 H19          1.6780    -4.1200     6.0650 hc         1 9VN       0.033700
     46 H20         -1.7350    -4.8710     4.7080 hc         1 9VN       0.034700
     47 H21         -1.7940    -3.1690     5.2070 hc         1 9VN       0.034700
     48 H22         -0.0450    -1.7210     4.2900 hc         1 9VN       0.033700
     49 H23          1.6170    -2.2670     4.5490 hc         1 9VN       0.033700
     50 H24          0.8260    -2.5520     2.9930 hc         1 9VN       0.033700
     51 H25         -1.5170    -1.7730    -2.5310 hc         1 9VN       0.056367
     52 H26         -2.0190    -3.1310    -3.5480 hc         1 9VN       0.056367
     53 H27         -0.3330    -2.9860    -3.0350 hc         1 9VN       0.056367
     54 H28         -5.1490    -5.7800     0.5050 ha         1 9VN       0.149500
     55 H29         -6.1420    -7.5080     1.9510 h4         1 9VN       0.010600
     56 H30         -2.4050    -8.6610     3.3600 h4         1 9VN       0.010600
     57 H31         -1.2750    -6.9780     1.9620 ha         1 9VN       0.149500
     58 O4           1.7270    -2.2030    -1.6060 o          1 9VN      -0.835300
     59 O5           1.8940    -3.9060    -0.2080 o          1 9VN      -0.835300
@<TRIPOS>BOND
     1    58     5 1
     2    13    12 1
     3    13    14 1
     4    59     5 1
     5    12    10 2
     6    15    14 1
     7     5     6 1
     8    14    17 1
     9    14    16 1
    10    26    27 ar
    11    26    25 ar
    12    27    22 ar
    13    10     9 1
    14    10    11 1
    15     6     8 1
    16     6     7 1
    17     9     8 1
    18     9    18 2
    19    25    24 ar
    20    16    11 1
    21     8    20 2
    22    22    18 1
    23    22    23 ar
    24    18    19 1
    25    20    19 1
    26    20    21 1
    27     7     1 1
    28    24    23 ar
    29     4     1 1
    30     1     2 1
    31     1     3 1
    32     2    28 1
    33     2    29 1
    34     2    30 1
    35     3    31 1
    36     3    32 1
    37     3    33 1
    38     4    34 1
    39     4    35 1
    40     4    36 1
    41     6    37 1
    42    11    38 1
    43    11    39 1
    44    12    40 1
    45    13    41 1
    46    13    42 1
    47    15    43 1
    48    15    44 1
    49    15    45 1
    50    16    46 1
    51    16    47 1
    52    17    48 1
    53    17    49 1
    54    17    50 1
    55    21    51 1
    56    21    52 1
    57    21    53 1
    58    23    54 1
    59    24    55 1
    60    26    56 1
    61    27    57 1
@<TRIPOS>SUBSTRUCTURE
     1 9VN         1 TEMP              0 ****  ****    0 ROOT
