@<TRIPOS>MOLECULE
molecule
   37    37     1     0     0
SMALL
bcc


@<TRIPOS>ATOM
      1 O1B          0.0000     0.0000     0.0000 o          1 9VP      -0.821300
      2 C1           1.3420     0.0000     0.0000 c          1 9VP       0.904600
      3 O1A          1.9460     0.0000     1.0470 o          1 9VP      -0.821300
      4 C2           2.0960    -0.0000    -1.3050 c3         1 9VP       0.008100
      5 C3           1.8230    -1.3090    -2.0520 c3         1 9VP       0.164600
      6 F1           2.1960    -2.3920    -1.2490 f          1 9VP      -0.233300
      7 C4           2.6390    -1.3270    -3.3490 c3         1 9VP      -0.133400
      8 O6           3.4970     0.1160    -1.0460 os         1 9VP      -0.357600
      9 C6           4.3060     0.1510    -2.2230 c3         1 9VP       0.135100
     10 C7           5.7770     0.3040    -1.8260 c3         1 9VP       0.169100
     11 C8           5.9390     1.5390    -0.9380 c3         1 9VP       0.132100
     12 C9           7.4080     1.6930    -0.5410 c3         1 9VP       0.100400
     13 O9           7.5430     2.7770     0.3800 oh         1 9VP      -0.611800
     14 O7           6.2000    -0.8570    -1.1100 oh         1 9VP      -0.569800
     15 C5           4.1220    -1.1510    -3.0060 c3         1 9VP       0.079700
     16 N5           4.9060    -1.0920    -4.2440 ns         1 9VP      -0.584900
     17 C10          5.3110    -2.2320    -4.8390 c          1 9VP       0.649100
     18 O10          5.0280    -3.3050    -4.3500 o          1 9VP      -0.605100
     19 C11          6.1170    -2.1720    -6.1100 c3         1 9VP      -0.175100
     20 O8           5.5150     2.7010    -1.6550 oh         1 9VP      -0.618800
     21 H2           1.7730     0.8350    -1.9140 h1         1 9VP       0.033700
     22 H3           0.7680    -1.3740    -2.2900 h1         1 9VP       0.072700
     23 H4           2.4950    -2.2750    -3.8530 hc         1 9VP       0.047200
     24 H5           2.3170    -0.5160    -3.9900 hc         1 9VP       0.047200
     25 H6           4.0050     0.9880    -2.8420 h1         1 9VP       0.040700
     26 H7           6.3810     0.4190    -2.7180 h1         1 9VP       0.023700
     27 H8           5.3340     1.4250    -0.0460 h1         1 9VP       0.105700
     28 H9           7.7550     0.7780    -0.0760 h1         1 9VP       0.021700
     29 H10          8.0010     1.8960    -1.4250 h1         1 9VP       0.021700
     30 H11          8.4480     2.8680     0.6290 ho         1 9VP       0.394000
     31 H12          7.0550    -1.1180    -1.4100 ho         1 9VP       0.385000
     32 H13          4.4540    -1.9860    -2.4010 h1         1 9VP       0.118700
     33 H14          5.0950    -0.2090    -4.6750 hn         1 9VP       0.302500
     34 H15          5.5760    -1.5990    -6.8540 hc         1 9VP       0.052367
     35 H16          7.0700    -1.6970    -5.9120 hc         1 9VP       0.052367
     36 H17          6.2850    -3.1760    -6.4800 hc         1 9VP       0.052367
     37 H18          5.4540     3.4320    -1.0620 ho         1 9VP       0.418000
@<TRIPOS>BOND
     1    19    17 1
     2    20    11 1
     3    16    17 1
     4    16    15 1
     5    17    18 2
     6    13    12 1
     7     9    15 1
     8     9    10 1
     9     9     8 1
    10     7    15 1
    11     7     5 1
    12    11    10 1
    13    11    12 1
    14    10    14 1
    15     4     5 1
    16     4     8 1
    17     4     2 1
    18     5     6 1
    19     2     3 1
    20     2     1 1
    21     4    21 1
    22     5    22 1
    23     7    23 1
    24     7    24 1
    25     9    25 1
    26    10    26 1
    27    11    27 1
    28    12    28 1
    29    12    29 1
    30    13    30 1
    31    14    31 1
    32    15    32 1
    33    16    33 1
    34    19    34 1
    35    19    35 1
    36    19    36 1
    37    20    37 1
@<TRIPOS>SUBSTRUCTURE
     1 9VP         1 TEMP              0 ****  ****    0 ROOT
