@<TRIPOS>MOLECULE
molecule
   26    27     1     0     0
SMALL
bcc


@<TRIPOS>ATOM
      1 C10          0.0000     0.0000     0.0000 cc         1 9VQ      -0.353300
      2 N12          0.6280     0.0090     2.1020 nd         1 9VQ      -0.506800
      3 C13          3.1770     1.0290     4.0250 ca         1 9VQ      -0.103500
      4 O01          2.8080     5.2290     5.4130 oh         1 9VQ      -0.600800
      5 C03          3.7970     3.3180     4.3560 ca         1 9VQ      -0.076300
      6 C04          4.0020     3.4590     2.9970 ca         1 9VQ      -0.109500
      7 C05          3.7950     2.3850     2.1510 ca         1 9VQ      -0.103500
      8 C06          3.3820     1.1700     2.6650 ca         1 9VQ      -0.108300
      9 C07          3.1560    -0.0010     1.7430 c3         1 9VQ       0.125600
     10 N08          1.7650     0.0000     1.2850 na         1 9VQ       0.065400
     11 C09          1.3530     0.0000     0.0000 cd         1 9VQ      -0.116300
     12 C11         -0.4290     0.0070     1.3310 cc         1 9VQ       0.330200
     13 C14          3.3840     2.1020     4.8700 ca         1 9VQ      -0.109500
     14 H23         -0.6380    -0.0020    -0.8760 ha         1 9VQ       0.152000
     15 H25          2.8530     0.0760     4.4270 ha         1 9VQ       0.134500
     16 H15          2.9490     5.9610     5.9900 ho         1 9VQ       0.401000
     17 H16          4.7920     5.1300     4.8650 h1         1 9VQ       0.025200
     18 H17          4.3360     4.1280     6.2500 h1         1 9VQ       0.025200
     19 H18          4.3250     4.4110     2.5940 ha         1 9VQ       0.134500
     20 H19          3.9550     2.4970     1.0850 ha         1 9VQ       0.134500
     21 H20          3.8180     0.0790     0.8880 h1         1 9VQ       0.063200
     22 H21          3.3620    -0.9230     2.2730 h1         1 9VQ       0.063200
     23 H22          1.9910    -0.0050    -0.8750 h4         1 9VQ       0.165000
     24 H24         -1.4590     0.0100     1.6670 h4         1 9VQ       0.047100
     25 H26          3.2230     1.9920     5.9350 ha         1 9VQ       0.134500
     26 C02          4.0230     4.4880     5.2780 c3         1 9VQ       0.186700
@<TRIPOS>BOND
     1    12     2 2
     2    12     1 1
     3     2    10 1
     4     3    13 ar
     5     3     8 ar
     6    13     5 ar
     7     1    11 2
     8    10     9 1
     9    10    11 1
    10     4    26 1
    11     9     8 1
    12     8     7 ar
    13     5    26 1
    14     5     6 ar
    15     7     6 ar
    16     1    14 1
    17     3    15 1
    18     4    16 1
    19    26    17 1
    20    26    18 1
    21     6    19 1
    22     7    20 1
    23     9    21 1
    24     9    22 1
    25    11    23 1
    26    12    24 1
    27    13    25 1
@<TRIPOS>SUBSTRUCTURE
     1 9VQ         1 TEMP              0 ****  ****    0 ROOT
