@<TRIPOS>MOLECULE
molecule
   31    32     1     0     0
SMALL
bcc


@<TRIPOS>ATOM
      1 C10          0.0000     0.0000     0.0000 cc         1 9VT       0.719300
      2 N12          1.8880     0.0000     1.1170 nd         1 9VT      -0.254000
      3 C13          1.1580     0.0010     2.1840 cc         1 9VT       0.354700
      4 C24          1.4340     3.3420     4.9390 cd         1 9VT      -0.344300
      5 C26          0.8890     2.1310     4.6790 cc         1 9VT      -0.070600
      6 C01         -1.3420    -0.0010    -3.5080 c3         1 9VT      -0.114100
      7 N08         -0.8190     0.0010    -1.1190 nu         1 9VT      -0.885900
      8 N11          1.3030     0.0000     0.0000 nd         1 9VT      -0.422000
      9 C14          1.6630    -0.0000     3.6040 c3         1 9VT       0.074000
     10 N17          1.8280     1.3810     4.0640 na         1 9VT       0.062400
     11 N18          2.9880     2.1560     3.9430 nc         1 9VT      -0.495800
     12 C19          2.7490     3.3330     4.4620 cd         1 9VT       0.340600
     13 S31         -0.5340     0.0050     1.6830 ss         1 9VT      -0.391800
     14 H21          3.8830     4.7470     5.5800 hc         1 9VT       0.049367
     15 H22          3.3280     5.3310     4.0060 hc         1 9VT       0.049367
     16 H23          4.6690     4.1810     4.0990 hc         1 9VT       0.049367
     17 H25          0.9390     4.1720     5.4270 ha         1 9VT       0.153000
     18 H02         -0.9050    -0.0090    -4.4990 hc         1 9VT       0.045700
     19 H03         -1.9490    -0.8880    -3.3730 hc         1 9VT       0.045700
     20 H04         -1.9610     0.8810    -3.3940 hc         1 9VT       0.045700
     21 H06          0.3890     0.8780    -2.5850 h1         1 9VT       0.058200
     22 H07          0.3810    -0.8910    -2.5820 h1         1 9VT       0.058200
     23 H09         -1.8140    -0.0290    -1.0100 hn         1 9VT       0.454800
     24 H16          2.6170    -0.5120     3.6480 h1         1 9VT       0.085200
     25 H15          0.9500    -0.5100     4.2400 h1         1 9VT       0.085200
     26 H29         -1.1030     1.6450     4.1070 hc         1 9VT       0.050367
     27 H30         -0.4880     0.7210     5.4840 hc         1 9VT       0.050367
     28 H28         -0.9610     2.4120     5.6950 hc         1 9VT       0.050367
     29 C27         -0.5140     1.6970     5.0150 c3         1 9VT      -0.030800
     30 C20          3.7260     4.4780     4.5420 c3         1 9VT      -0.109400
     31 C05         -0.2280    -0.0030    -2.4590 c3         1 9VT       0.237800
@<TRIPOS>BOND
     1    30    12 1
     2    11    12 2
     3    11    10 1
     4     2     8 1
     5     2     3 2
     6    12     4 1
     7     8     1 2
     8     9    10 1
     9     9     3 1
    10    10     5 1
    11     3    13 1
    12     4     5 2
    13     1     7 1
    14     1    13 1
    15     5    29 1
    16     7    31 1
    17    31     6 1
    18    30    14 1
    19    30    15 1
    20    30    16 1
    21     4    17 1
    22     6    18 1
    23     6    19 1
    24     6    20 1
    25    31    21 1
    26    31    22 1
    27     7    23 1
    28     9    24 1
    29     9    25 1
    30    29    26 1
    31    29    27 1
    32    29    28 1
@<TRIPOS>SUBSTRUCTURE
     1 9VT         1 TEMP              0 ****  ****    0 ROOT
