@<TRIPOS>MOLECULE
9VT
   31    32     1     0     0
SMALL
bcc


@<TRIPOS>ATOM
      1 C10          0.0000     0.0000     0.0000 cc         1 9VT       0.573300
      2 N12          1.8880     0.0000     1.1170 nd         1 9VT      -0.179000
      3 C13          1.1580     0.0010     2.1840 cc         1 9VT       0.317700
      4 C24          1.4340     3.3420     4.9390 cc         1 9VT      -0.329300
      5 C26          0.8890     2.1310     4.6790 cd         1 9VT      -0.234600
      6 C01         -1.3420    -0.0010    -3.5080 c3         1 9VT      -0.006100
      7 N08         -0.8190     0.0010    -1.1190 nu         1 9VT      -0.437900
      8 N11          1.3030     0.0000     0.0000 nd         1 9VT      -0.411000
      9 C14          1.6630    -0.0000     3.6040 c3         1 9VT       0.006000
     10 N17          1.8280     1.3810     4.0640 na         1 9VT       0.483400
     11 N18          2.9880     2.1560     3.9430 nd         1 9VT      -0.634800
     12 C19          2.7490     3.3330     4.4620 cc         1 9VT       0.362600
     13 S31         -0.5340     0.0050     1.6830 ss         1 9VT      -0.445800
     14 H21          3.8830     4.7470     5.5800 hc         1 9VT       0.009367
     15 H22          3.3280     5.3310     4.0060 hc         1 9VT       0.009367
     16 H23          4.6690     4.1810     4.0990 hc         1 9VT       0.009367
     17 H25          0.9390     4.1720     5.4270 ha         1 9VT       0.135000
     18 H02         -0.9050    -0.0090    -4.4990 hc         1 9VT       0.011033
     19 H03         -1.9490    -0.8880    -3.3730 hc         1 9VT       0.011033
     20 H04         -1.9610     0.8810    -3.3940 hc         1 9VT       0.011033
     21 H06          0.3890     0.8780    -2.5850 h1         1 9VT       0.031200
     22 H07          0.3810    -0.8910    -2.5820 h1         1 9VT       0.031200
     23 H09         -1.8140    -0.0290    -1.0100 hn         1 9VT       0.299800
     24 H16          2.6170    -0.5120     3.6480 h1         1 9VT       0.047200
     25 H15          0.9500    -0.5100     4.2400 h1         1 9VT       0.047200
     26 H29         -1.1030     1.6450     4.1070 hc         1 9VT       0.012700
     27 H30         -0.4880     0.7210     5.4840 hc         1 9VT       0.012700
     28 H28         -0.9610     2.4120     5.6950 hc         1 9VT       0.012700
     29 C27         -0.5140     1.6970     5.0150 c3         1 9VT       0.089200
     30 C20          3.7260     4.4780     4.5420 c3         1 9VT      -0.001400
     31 C05         -0.2280    -0.0030    -2.4590 c3         1 9VT       0.155800
@<TRIPOS>BOND
     1     1     7 1   
     2     1     8 2   
     3     1    13 1   
     4     2     3 2   
     5     2     8 1   
     6     3     9 1   
     7     3    13 1   
     8     4     5 2   
     9     4    12 1   
    10     4    17 1   
    11     5    10 1   
    12     5    29 1   
    13     6    18 1   
    14     6    19 1   
    15     6    20 1   
    16     6    31 1   
    17     7    23 1   
    18     7    31 1   
    19     9    10 1   
    20     9    24 1   
    21     9    25 1   
    22    10    11 1   
    23    11    12 2   
    24    12    30 1   
    25    14    30 1   
    26    15    30 1   
    27    16    30 1   
    28    21    31 1   
    29    22    31 1   
    30    26    29 1   
    31    27    29 1   
    32    28    29 1   
@<TRIPOS>SUBSTRUCTURE
     1 9VT         1 TEMP              0 ****  ****    0 ROOT
