@<TRIPOS>MOLECULE
molecule
   39    42     1     0     0
SMALL
bcc


@<TRIPOS>ATOM
      1 OAN          0.0000     0.0000     0.0000 o          1 9VU      -0.543500
      2 CAH          1.2130     0.0000     0.0000 c          1 9VU       0.672500
      3 NAG          2.0100     0.0000     1.0800 ns         1 9VU      -0.470100
      4 CAC          3.3640    -0.0010     0.7390 ca         1 9VU       0.059600
      5 CAB          4.5060    -0.0020     1.5380 ca         1 9VU      -0.149000
      6 CAA          5.7570    -0.0040     0.9570 ca         1 9VU      -0.085000
      7 CAF          5.8900    -0.0060    -0.4190 ca         1 9VU      -0.088300
      8 CAJ          7.2600    -0.0090    -1.0460 c3         1 9VU      -0.048800
      9 CAE          4.7600    -0.0060    -1.2200 ca         1 9VU       0.046100
     10 BrA          4.9340    -0.0060    -3.1030 br         1 9VU      -0.074100
     11 CAD          3.5100    -0.0030    -0.6430 ca         1 9VU      -0.169300
     12 CAI          2.1120    -0.0090    -1.2180 c3         1 9VU       0.144100
     13 OAL          1.8940     1.1610    -2.0100 oh         1 9VU      -0.548800
     14 CAM          1.8770    -1.2710    -2.0490 c3         1 9VU      -0.154400
     15 CAO          0.4490    -1.2970    -2.5310 c          1 9VU       0.564700
     16 OAP         -0.3060    -0.3940    -2.2390 o          1 9VU      -0.470100
     17 CAQ         -0.0280    -2.4150    -3.3550 ca         1 9VU      -0.168600
     18 CAV         -1.3540    -2.4410    -3.8050 ca         1 9VU      -0.054000
     19 CAU         -1.7980    -3.4940    -4.5790 ca         1 9VU       0.033100
     20 OAY         -3.0170    -3.7560    -5.1340 os         1 9VU      -0.322900
     21 CAX         -2.9950    -5.1580    -5.4640 c3         1 9VU       0.331200
     22 OAW         -1.5980    -5.4380    -5.6760 os         1 9VU      -0.324900
     23 CAT         -0.9240    -4.5320    -4.9140 ca         1 9VU       0.074100
     24 CAS          0.3920    -4.5050    -4.4670 ca         1 9VU      -0.129000
     25 CAR          0.8430    -3.4560    -3.6980 ca         1 9VU      -0.093000
     26 HAG          1.6730     0.0010     2.0230 hn         1 9VU       0.340500
     27 HAB          4.4110    -0.0010     2.6170 ha         1 9VU       0.139000
     28 HAA          6.6410    -0.0050     1.5840 ha         1 9VU       0.144000
     29 HAJ1         8.0140    -0.0110    -0.2670 hc         1 9VU       0.052033
     30 HAJ2         7.3780     0.8750    -1.6600 hc         1 9VU       0.052033
     31 HAJ3         7.3740    -0.8940    -1.6600 hc         1 9VU       0.052033
     32 HAL          1.9360     1.9260    -1.4590 ho         1 9VU       0.413000
     33 HAM1         2.0680    -2.1460    -1.4400 hc         1 9VU       0.085700
     34 HAM2         2.5460    -1.2720    -2.9020 hc         1 9VU       0.085700
     35 HAV         -2.0150    -1.6100    -3.5910 ha         1 9VU       0.170000
     36 HAR          1.8630    -3.4510    -3.3330 ha         1 9VU       0.141000
     37 HAX1        -3.3630    -5.7380    -4.6270 h2         1 9VU       0.073700
     38 HAX2        -3.5470    -5.3280    -6.3800 h2         1 9VU       0.073700
     39 HAS          1.0680    -5.3090    -4.7320 ha         1 9VU       0.146000
@<TRIPOS>BOND
     1     1     2 2
     2     2     3 1
     3     2    12 1
     4     3     4 1
     5     4     5 ar
     6     4    11 ar
     7     5     6 ar
     8     6     7 ar
     9     7     8 1
    10     7     9 ar
    11     9    10 1
    12     9    11 ar
    13    11    12 1
    14    12    13 1
    15    12    14 1
    16    14    15 1
    17    15    16 2
    18    15    17 1
    19    17    18 ar
    20    17    25 ar
    21    18    19 ar
    22    19    20 1
    23    19    23 ar
    24    20    21 1
    25    21    22 1
    26    22    23 1
    27    23    24 ar
    28    24    25 ar
    29     3    26 1
    30     5    27 1
    31     6    28 1
    32     8    29 1
    33     8    30 1
    34     8    31 1
    35    13    32 1
    36    14    33 1
    37    14    34 1
    38    18    35 1
    39    25    36 1
    40    21    37 1
    41    21    38 1
    42    24    39 1
@<TRIPOS>SUBSTRUCTURE
     1 9VU         1 TEMP              0 ****  ****    0 ROOT
