@<TRIPOS>MOLECULE
9VW
   36    37     1     0     0
SMALL
bcc


@<TRIPOS>ATOM
      1 C13          0.0000     0.0000     0.0000 ca         1 9VW       0.411200
      2 C20          3.6710     3.1530     7.0290 c3         1 9VW       0.033700
      3 C22          4.3230     4.5360     6.9910 c3         1 9VW      -0.041400
      4 C28          3.9700     4.7720     9.4530 c3         1 9VW      -0.028400
      5 O01          3.1870     0.6910     6.0410 o          1 9VW      -0.705100
      6 C02          2.8190     1.6150     5.3420 c          1 9VW       0.580100
      7 N03          2.2160     1.3700     4.1620 ns         1 9VW      -0.225900
      8 C05          2.0030    -0.0110     3.7220 c3         1 9VW       0.135300
      9 C08          1.3140    -0.0100     2.3820 ca         1 9VW      -0.246600
     10 C09          2.0570     0.0000     1.2110 ca         1 9VW      -0.053000
     11 C11          1.3820     0.0000     0.0000 ca         1 9VW      -0.224300
     12 N15         -0.6750     0.0000     1.1340 nb         1 9VW      -0.583000
     13 C16         -0.0660    -0.0050     2.3030 ca         1 9VW       0.421200
     14 N18          3.0150     2.8870     5.7470 ns         1 9VW      -0.214900
     15 C25          5.0080     4.8150     8.3310 c3         1 9VW      -0.017400
     16 C31          3.3180     3.3890     9.4910 c3         1 9VW      -0.017400
     17 C34          2.6320     3.1110     8.1520 c3         1 9VW      -0.041400
     18 H1          -0.5350     0.0020    -0.9420 h4         1 9VW      -0.019900
     19 H2           4.4310     2.4030     7.2150 h1         1 9VW       0.060700
     20 H3           3.5630     5.2870     6.8120 hc         1 9VW       0.019700
     21 H4           5.0600     4.5640     6.1980 hc         1 9VW       0.019700
     22 H5           3.2100     5.5230     9.2700 hc         1 9VW       0.013200
     23 H6           4.4560     4.9670    10.4010 hc         1 9VW       0.013200
     24 H7           1.9460     2.1310     3.5700 hn         1 9VW       0.169500
     25 H8           2.9580    -0.5150     3.6370 h1         1 9VW       0.029700
     26 H9           1.3840    -0.5290     4.4450 h1         1 9VW       0.029700
     27 H10          3.1400    -0.0000     1.2420 ha         1 9VW       0.113000
     28 H11          1.9310     0.0040    -0.9340 ha         1 9VW       0.115000
     29 H12         -0.6540    -0.0050     3.2130 h4         1 9VW      -0.014900
     30 H13          2.7440     3.6470     5.1560 hn         1 9VW       0.165500
     31 H14          5.4670     5.7960     8.3030 hc         1 9VW       0.015950
     32 H15          5.7650     4.0620     8.5120 hc         1 9VW       0.015950
     33 H16          4.0780     2.6380     9.6700 hc         1 9VW       0.015950
     34 H17          2.5810     3.3610    10.2850 hc         1 9VW       0.015950
     35 H18          2.1720     2.1300     8.1800 hc         1 9VW       0.019700
     36 H19          1.8760     3.8650     7.9710 hc         1 9VW       0.019700
@<TRIPOS>BOND
     1     1    11 ar  
     2     1    12 ar  
     3     1    18 1   
     4     2     3 1   
     5     2    14 1   
     6     2    17 1   
     7     2    19 1   
     8     3    15 1   
     9     3    20 1   
    10     3    21 1   
    11     4    15 1   
    12     4    16 1   
    13     4    22 1   
    14     4    23 1   
    15     5     6 2   
    16     6     7 1   
    17     6    14 1   
    18     7     8 1   
    19     7    24 1   
    20     8     9 1   
    21     8    25 1   
    22     8    26 1   
    23     9    10 ar  
    24     9    13 ar  
    25    10    11 ar  
    26    10    27 1   
    27    11    28 1   
    28    12    13 ar  
    29    13    29 1   
    30    14    30 1   
    31    15    31 1   
    32    15    32 1   
    33    16    17 1   
    34    16    33 1   
    35    16    34 1   
    36    17    35 1   
    37    17    36 1   
@<TRIPOS>SUBSTRUCTURE
     1 9VW         1 TEMP              0 ****  ****    0 ROOT
