@<TRIPOS>MOLECULE
molecule
   36    37     1     0     0
SMALL
bcc


@<TRIPOS>ATOM
      1 C13          0.0000     0.0000     0.0000 ca         1 9VW       0.425200
      2 C20          3.6710     3.1530     7.0290 c3         1 9VW       0.134700
      3 C22          4.3230     4.5360     6.9910 c3         1 9VW      -0.094900
      4 C28          3.9700     4.7720     9.4530 c3         1 9VW      -0.083400
      5 O01          3.1870     0.6910     6.0410 o          1 9VW      -0.660100
      6 C02          2.8190     1.6150     5.3420 c          1 9VW       0.781100
      7 N03          2.2160     1.3700     4.1620 ns         1 9VW      -0.606900
      8 C05          2.0030    -0.0110     3.7220 c3         1 9VW       0.183300
      9 C08          1.3140    -0.0100     2.3820 ca         1 9VW      -0.244600
     10 C09          2.0570     0.0000     1.2110 ca         1 9VW      -0.079000
     11 C11          1.3820     0.0000     0.0000 ca         1 9VW      -0.258300
     12 N15         -0.6750     0.0000     1.1340 nb         1 9VW      -0.690000
     13 C16         -0.0660    -0.0050     2.3030 ca         1 9VW       0.435200
     14 N18          3.0150     2.8870     5.7470 ns         1 9VW      -0.600900
     15 C25          5.0080     4.8150     8.3310 c3         1 9VW      -0.076900
     16 C31          3.3180     3.3890     9.4910 c3         1 9VW      -0.076900
     17 C34          2.6320     3.1110     8.1520 c3         1 9VW      -0.094900
     18 H1          -0.5350     0.0020    -0.9420 h4         1 9VW       0.025100
     19 H2           4.4310     2.4030     7.2150 h1         1 9VW       0.081700
     20 H3           3.5630     5.2870     6.8120 hc         1 9VW       0.047450
     21 H4           5.0600     4.5640     6.1980 hc         1 9VW       0.047450
     22 H5           3.2100     5.5230     9.2700 hc         1 9VW       0.041700
     23 H6           4.4560     4.9670    10.4010 hc         1 9VW       0.041700
     24 H7           1.9460     2.1310     3.5700 hn         1 9VW       0.309500
     25 H8           2.9580    -0.5150     3.6370 h1         1 9VW       0.060200
     26 H9           1.3840    -0.5290     4.4450 h1         1 9VW       0.060200
     27 H10          3.1400    -0.0000     1.2420 ha         1 9VW       0.143000
     28 H11          1.9310     0.0040    -0.9340 ha         1 9VW       0.141000
     29 H12         -0.6540    -0.0050     3.2130 h4         1 9VW       0.029100
     30 H13          2.7440     3.6470     5.1560 hn         1 9VW       0.305500
     31 H14          5.4670     5.7960     8.3030 hc         1 9VW       0.045200
     32 H15          5.7650     4.0620     8.5120 hc         1 9VW       0.045200
     33 H16          4.0780     2.6380     9.6700 hc         1 9VW       0.045200
     34 H17          2.5810     3.3610    10.2850 hc         1 9VW       0.045200
     35 H18          2.1720     2.1300     8.1800 hc         1 9VW       0.047450
     36 H19          1.8760     3.8650     7.9710 hc         1 9VW       0.047450
@<TRIPOS>BOND
     1     5     6 2
     2    15     4 1
     3    15     3 1
     4    16     4 1
     5    16    17 1
     6     2     3 1
     7     2    17 1
     8     2    14 1
     9     6    14 1
    10     6     7 1
    11     8     7 1
    12     8     9 1
    13     9    10 ar
    14     9    13 ar
    15    10    11 ar
    16    13    12 ar
    17    11     1 ar
    18     1    12 ar
    19     1    18 1
    20     2    19 1
    21     3    20 1
    22     3    21 1
    23     4    22 1
    24     4    23 1
    25     7    24 1
    26     8    25 1
    27     8    26 1
    28    10    27 1
    29    11    28 1
    30    13    29 1
    31    14    30 1
    32    15    31 1
    33    15    32 1
    34    16    33 1
    35    16    34 1
    36    17    35 1
    37    17    36 1
@<TRIPOS>SUBSTRUCTURE
     1 9VW         1 TEMP              0 ****  ****    0 ROOT
