@<TRIPOS>MOLECULE
molecule
   30    31     1     0     0
SMALL
bcc


@<TRIPOS>ATOM
      1 C15          0.0000     0.0000     0.0000 c3         1 9VZ       0.015900
      2 C01          1.7660    -2.7260    -4.0640 c3         1 9VZ      -0.096100
      3 C02          2.2360    -2.6530    -2.6080 c3         1 9VZ       0.145400
      4 O03          1.7150    -1.4460    -1.9910 os         1 9VZ      -0.431900
      5 C04          2.0380    -1.2310    -0.7060 c          1 9VZ       0.634100
      6 O05          2.7320    -2.0250    -0.1170 o          1 9VZ      -0.546000
      7 C06          1.5330     0.0000     0.0000 c3         1 9VZ      -0.116700
      8 C07          2.0310     0.0000     1.4490 c3         1 9VZ      -0.070400
      9 C08          1.7390     1.3580     2.0890 c3         1 9VZ      -0.098700
     10 C09          0.2730     1.6990     1.8660 cc         1 9VZ       0.373600
     11 N10         -0.3920     2.6150     2.5540 nc         1 9VZ      -0.686000
     12 C11         -1.6310     2.8040     2.2630 cd         1 9VZ       0.454700
     13 C12         -2.5350     3.8020     2.9410 c3         1 9VZ      -0.111400
     14 S13         -2.1040     1.7580     0.9960 ss         1 9VZ      -0.209300
     15 C14         -0.4850     1.0820     0.9360 cd         1 9VZ      -0.154700
     16 H30         -0.3620    -0.9630     0.3400 hc         1 9VZ       0.064700
     17 H29         -0.3620     0.1980    -1.0010 hc         1 9VZ       0.064700
     18 H18          2.1040    -1.8450    -4.5970 hc         1 9VZ       0.047367
     19 H17          0.6840    -2.7720    -4.0920 hc         1 9VZ       0.047367
     20 H16          2.1770    -3.6120    -4.5330 hc         1 9VZ       0.047367
     21 H20          1.8750    -3.5200    -2.0690 h1         1 9VZ       0.049700
     22 H19          3.3190    -2.6350    -2.5790 h1         1 9VZ       0.049700
     23 H21          1.8940     0.8870    -0.5060 hc         1 9VZ       0.083700
     24 H22          3.1050    -0.1430     1.4360 hc         1 9VZ       0.067200
     25 H23          1.4800    -0.7560     1.9950 hc         1 9VZ       0.067200
     26 H24          2.3420     2.1070     1.5880 hc         1 9VZ       0.067700
     27 H25          1.9100     1.2750     3.1560 hc         1 9VZ       0.067700
     28 H28         -2.1740     4.8050     2.7470 hc         1 9VZ       0.057700
     29 H27         -2.5380     3.6190     4.0080 hc         1 9VZ       0.057700
     30 H26         -3.5410     3.7000     2.5530 hc         1 9VZ       0.057700
@<TRIPOS>BOND
     1    11    12 2
     2    11    10 1
     3    13    12 1
     4     9    10 1
     5     9     8 1
     6    12    14 1
     7    10    15 2
     8     6     5 2
     9     8     7 1
    10    15    14 1
    11    15     1 1
    12     5     7 1
    13     5     4 1
    14     7     1 1
    15     3     4 1
    16     3     2 1
    17     1    16 1
    18     1    17 1
    19     2    18 1
    20     2    19 1
    21     2    20 1
    22     3    21 1
    23     3    22 1
    24     7    23 1
    25     8    24 1
    26     8    25 1
    27     9    26 1
    28     9    27 1
    29    13    28 1
    30    13    29 1
    31    13    30 1
@<TRIPOS>SUBSTRUCTURE
     1 9VZ         1 TEMP              0 ****  ****    0 ROOT
