@<TRIPOS>MOLECULE
9W2
   32    33     1     0     0
SMALL
bcc


@<TRIPOS>ATOM
      1 C10          0.0000     0.0000     0.0000 c3         1 9W2      -0.041900
      2 N12         -1.8590    -2.3020     3.0030 nb         1 9W2      -0.659000
      3 C13         -2.4090    -3.2640     3.7250 ca         1 9W2       0.470200
      4 C15         -0.2180    -4.0180     4.2780 ca         1 9W2       0.470200
      5 C01          3.7430    -2.4250    -1.9700 c3         1 9W2      -0.068100
      6 C02          3.2420    -1.1960    -1.2560 c          1 9W2       0.573100
      7 O03          3.9370    -0.2040    -1.1980 o          1 9W2      -0.647100
      8 N04          2.0210    -1.1980    -0.6880 ns         1 9W2      -0.207900
      9 C05          1.5310     0.0000     0.0000 c3         1 9W2       0.018700
     10 C06          2.0330     0.0000     1.4460 c3         1 9W2      -0.041900
     11 C07          1.4690    -1.2210     2.1780 c3         1 9W2       0.138800
     12 N08          0.0020    -1.1740     2.1510 nh         1 9W2      -0.439300
     13 C09         -0.5060    -1.2210     0.7730 c3         1 9W2       0.138800
     14 C11         -0.5410    -2.1920     2.9140 ca         1 9W2       0.701900
     15 C14         -1.5910    -4.1620     4.3920 ca         1 9W2      -0.386600
     16 N16          0.2690    -3.0340     3.5390 nb         1 9W2      -0.659000
     17 H1          -0.3600     0.9030     0.4770 hc         1 9W2       0.033950
     18 H2          -0.3600    -0.0450    -1.0210 hc         1 9W2       0.033950
     19 H3          -3.4870    -3.3490     3.7930 h4         1 9W2      -0.015900
     20 H4           0.4500    -4.7040     4.7860 h4         1 9W2      -0.015900
     21 H5           3.8670    -3.2310    -1.2570 hc         1 9W2       0.022033
     22 H6           3.0270    -2.7190    -2.7270 hc         1 9W2       0.022033
     23 H7           4.6950    -2.2080    -2.4390 hc         1 9W2       0.022033
     24 H8           1.4270    -1.9980    -0.7830 hn         1 9W2       0.178500
     25 H9           1.8920     0.8870    -0.5070 h1         1 9W2       0.058700
     26 H10          1.7010     0.9030     1.9430 hc         1 9W2       0.033950
     27 H11          3.1160    -0.0450     1.4520 hc         1 9W2       0.033950
     28 H12          1.8090    -2.1240     1.6860 h1         1 9W2       0.026450
     29 H13          1.8100    -1.2130     3.2060 h1         1 9W2       0.026450
     30 H14         -0.1530    -2.1240     0.2900 h1         1 9W2       0.026450
     31 H15         -1.5890    -1.2130     0.7880 h1         1 9W2       0.026450
     32 H16         -2.0160    -4.9600     4.9890 ha         1 9W2       0.125000
@<TRIPOS>BOND
     1     1     9 1   
     2     1    13 1   
     3     1    17 1   
     4     1    18 1   
     5     2     3 ar  
     6     2    14 ar  
     7     3    15 ar  
     8     3    19 1   
     9     4    15 ar  
    10     4    16 ar  
    11     4    20 1   
    12     5     6 1   
    13     5    21 1   
    14     5    22 1   
    15     5    23 1   
    16     6     7 2   
    17     6     8 1   
    18     8     9 1   
    19     8    24 1   
    20     9    10 1   
    21     9    25 1   
    22    10    11 1   
    23    10    26 1   
    24    10    27 1   
    25    11    12 1   
    26    11    28 1   
    27    11    29 1   
    28    12    13 1   
    29    12    14 1   
    30    13    30 1   
    31    13    31 1   
    32    14    16 ar  
    33    15    32 1   
@<TRIPOS>SUBSTRUCTURE
     1 9W2         1 TEMP              0 ****  ****    0 ROOT
