@<TRIPOS>MOLECULE
9W4
   51    55     1     0     0
SMALL
bcc


@<TRIPOS>ATOM
      1 N3           0.0000     0.0000     0.0000 ns         1 9W4      -0.032100
      2 C4           1.4000     0.0000     0.0000 ca         1 9W4      -0.091400
      3 C5           2.0990     0.0000     1.2040 ca         1 9W4      -0.123000
      4 C6           3.4710     0.0010     1.2140 ca         1 9W4      -0.035000
      5 C7           4.1960     0.0020     0.0040 ca         1 9W4       0.082400
      6 C15          9.1030     1.0780    -3.0140 c3         1 9W4       0.212400
      7 C17          9.6380    -0.0530    -0.9710 c3         1 9W4       0.212400
      8 C20         -2.8500     1.1980    -2.0550 ca         1 9W4      -0.060500
      9 C21         -4.2240     1.0970    -2.1150 ca         1 9W4      -0.087000
     10 C22         -4.9070     0.3440    -1.1760 ca         1 9W4      -0.122300
     11 C2          -0.6740     0.6390    -0.9760 c          1 9W4       0.582700
     12 N8           5.5330     0.0030    -0.1770 nc         1 9W4      -0.511100
     13 C9           5.9770     0.0040    -1.3870 cd         1 9W4       0.480100
     14 S10          4.6420     0.0030    -2.5290 ss         1 9W4      -0.209100
     15 C11          3.4850     0.0010    -1.2000 ca         1 9W4      -0.003100
     16 C12          2.0930    -0.0050    -1.1980 ca         1 9W4      -0.043000
     17 N13          7.3130     0.0050    -1.7350 nh         1 9W4      -0.387600
     18 C14          7.6300     1.1480    -2.6030 c3         1 9W4       0.096300
     19 O16          9.9180     1.0480    -1.8390 os         1 9W4      -0.409600
     20 C18          8.1690     0.0060    -0.5400 c3         1 9W4       0.096300
     21 C19         -2.1480     0.5390    -1.0440 ca         1 9W4      -0.151600
     22 N24         -6.7770    -0.9100    -2.0810 n          1 9W4      -0.180400
     23 C25         -6.9750    -2.1760    -1.6500 c          1 9W4       0.472200
     24 O26         -6.8860    -2.5890    -0.5120 o          1 9W4      -0.571500
     25 C27         -7.3280    -2.9570    -2.8700 cc         1 9W4       0.436200
     26 N28         -7.3060    -2.1150    -3.8610 nd         1 9W4      -0.495100
     27 C29         -6.9860    -0.8920    -3.4100 c          1 9W4       0.711900
     28 O30         -6.8890     0.0970    -4.1090 o          1 9W4      -0.568500
     29 C31         -4.2180    -0.3130    -0.1730 ca         1 9W4      -0.087000
     30 C32         -2.8440    -0.2160    -0.0970 ca         1 9W4      -0.060500
     31 H1          -0.5000    -0.4710     0.7280 hn         1 9W4       0.174500
     32 H2           1.5550    -0.0010     2.1410 ha         1 9W4       0.108000
     33 H3           4.0010     0.0010     2.1590 ha         1 9W4       0.114000
     34 H4           9.3540     1.9510    -3.6050 h1         1 9W4       0.015450
     35 H5           9.2740     0.1800    -3.5940 h1         1 9W4       0.015450
     36 H6          10.2730     0.0070    -0.0960 h1         1 9W4       0.015450
     37 H7           9.8230    -0.9820    -1.4970 h1         1 9W4       0.015450
     38 H8          -2.3160     1.7880    -2.7900 ha         1 9W4       0.118500
     39 H9          -4.7700     1.6080    -2.8980 ha         1 9W4       0.122500
     40 H10          1.5520    -0.0390    -2.1360 ha         1 9W4       0.146000
     41 H11          7.0070     1.1120    -3.4890 h1         1 9W4       0.035200
     42 H12          7.4490     2.0710    -2.0650 h1         1 9W4       0.035200
     43 H13          7.9380    -0.8590     0.0690 h1         1 9W4       0.035200
     44 H14          7.9960     0.9120     0.0270 h1         1 9W4       0.035200
     45 H15         -6.8100     0.1040    -0.2510 h1         1 9W4       0.044200
     46 H16         -6.8150     1.1430    -1.6830 h1         1 9W4       0.044200
     47 H17         -8.0990    -3.7170    -2.8230 h4         1 9W4       0.025800
     48 H18         -4.7590    -0.9000     0.5600 ha         1 9W4       0.122500
     49 H19         -2.3060    -0.7300     0.6890 ha         1 9W4       0.118500
     50 C23         -6.4090     0.2370    -1.2490 c3         1 9W4       0.134300
     51 O1          -0.0720     1.2960    -1.8020 o          1 9W4      -0.629100
@<TRIPOS>BOND
     1     1     2 1   
     2     1    11 1   
     3     1    31 1   
     4     2     3 ar  
     5     2    16 ar  
     6     3     4 ar  
     7     3    32 1   
     8     4     5 ar  
     9     4    33 1   
    10     5    12 1   
    11     5    15 ar  
    12     6    18 1   
    13     6    19 1   
    14     6    34 1   
    15     6    35 1   
    16     7    19 1   
    17     7    20 1   
    18     7    36 1   
    19     7    37 1   
    20     8     9 ar  
    21     8    21 ar  
    22     8    38 1   
    23     9    10 ar  
    24     9    39 1   
    25    10    29 ar  
    26    10    50 1   
    27    11    21 1   
    28    11    51 2   
    29    12    13 2   
    30    13    14 1   
    31    13    17 1   
    32    14    15 1   
    33    15    16 ar  
    34    16    40 1   
    35    17    18 1   
    36    17    20 1   
    37    18    41 1   
    38    18    42 1   
    39    20    43 1   
    40    20    44 1   
    41    21    30 ar  
    42    22    23 1   
    43    22    27 1   
    44    22    50 1   
    45    23    24 2   
    46    23    25 1   
    47    25    26 2   
    48    25    47 1   
    49    26    27 1   
    50    27    28 2   
    51    29    30 ar  
    52    29    48 1   
    53    30    49 1   
    54    45    50 1   
    55    46    50 1   
@<TRIPOS>SUBSTRUCTURE
     1 9W4         1 TEMP              0 ****  ****    0 ROOT
