@<TRIPOS>MOLECULE
molecule
   27    28     1     0     0
SMALL
bcc


@<TRIPOS>ATOM
      1 C10          0.0000     0.0000     0.0000 ca         1 9W5      -0.131500
      2 C13          1.3820    -0.0100     2.3950 ca         1 9W5      -0.103000
      3 C02          4.7450    -3.3530     1.8950 cc         1 9W5       0.363600
      4 C03          4.7500    -3.3520     0.4980 cc         1 9W5      -0.413300
      5 C04          4.3250    -2.1280     0.0800 cd         1 9W5       0.198300
      6 N05          4.1840    -1.7140    -1.2420 nv         1 9W5      -0.928200
      7 N06          4.0630    -1.3890     1.1820 na         1 9W5       0.039400
      8 C07          3.5800    -0.0060     1.1970 c3         1 9W5       0.128600
      9 C08          2.0740     0.0000     1.1970 ca         1 9W5      -0.119300
     10 C09          1.3820     0.0000     0.0000 ca         1 9W5      -0.103000
     11 C11         -0.6920     0.0000     1.1980 ca         1 9W5      -0.118000
     12 C12         -0.0000    -0.0050     2.3950 ca         1 9W5      -0.131500
     13 N14          4.3290    -2.1820     2.3060 nd         1 9W5      -0.526800
     14 H1          -0.5420     0.0020    -0.9380 ha         1 9W5       0.131000
     15 H2           1.9240    -0.0140     3.3330 ha         1 9W5       0.133000
     16 H3           6.1840    -4.7520     2.6050 hc         1 9W5       0.048033
     17 H4           4.5260    -5.3670     2.5510 hc         1 9W5       0.048033
     18 H5           5.0070    -4.2300     3.8180 hc         1 9W5       0.048033
     19 H6           5.1150    -4.1500    -0.1370 ha         1 9W5       0.152000
     20 H7           4.3180    -0.7510    -1.4810 hn         1 9W5       0.436800
     21 H8           4.0060    -2.3870    -1.9610 hn         1 9W5       0.436800
     22 H9           3.9440     0.5130     0.3190 h1         1 9W5       0.064200
     23 H10          3.9430     0.4920     2.0880 h1         1 9W5       0.064200
     24 H11          1.9230     0.0040    -0.9380 ha         1 9W5       0.133000
     25 H12         -1.7750     0.0020     1.1980 ha         1 9W5       0.130000
     26 H13         -0.5420    -0.0080     3.3330 ha         1 9W5       0.131000
     27 C01          5.1430    -4.5060     2.7790 c3         1 9W5      -0.109400
@<TRIPOS>BOND
     1    27     3 1
     2     3     4 1
     3     3    13 2
     4     4     5 2
     5    13     7 1
     6     5     7 1
     7     5     6 1
     8     7     8 1
     9     8     9 1
    10     9     2 ar
    11     9    10 ar
    12     2    12 ar
    13    10     1 ar
    14    12    11 ar
    15     1    11 ar
    16     1    14 1
    17     2    15 1
    18    27    16 1
    19    27    17 1
    20    27    18 1
    21     4    19 1
    22     6    20 1
    23     6    21 1
    24     8    22 1
    25     8    23 1
    26    10    24 1
    27    11    25 1
    28    12    26 1
@<TRIPOS>SUBSTRUCTURE
     1 9W5         1 TEMP              0 ****  ****    0 ROOT
