@<TRIPOS>MOLECULE
9W6
   37    39     1     0     0
SMALL
bcc


@<TRIPOS>ATOM
      1 N            0.0000     0.0000     0.0000 ns         1 9W6      -0.129500
      2 C            4.0550     0.0120    -2.5040 c3         1 9W6      -0.005100
      3 O            2.0210     0.0050    -1.1660 os         1 9W6      -0.431900
      4 C1           3.4710     0.0050    -1.0910 c3         1 9W6       0.244400
      5 C10         -2.1750    -0.0300     8.4720 ca         1 9W6       0.007900
      6 C11         -1.9630    -0.0310     9.8520 ca         1 9W6      -0.173300
      7 C12         -0.6830    -0.0320    10.3270 ca         1 9W6       0.424200
      8 C13          0.2160    -0.0210     8.1980 ca         1 9W6       0.484200
      9 C14         -1.0680    -0.0250     7.6060 ca         1 9W6      -0.071900
     10 C2           1.3480     0.0000     0.0000 c          1 9W6       0.662100
     11 C3          -0.6730     0.0000     1.1680 c          1 9W6       0.630700
     12 C4          -2.1380     0.0000     1.1680 cc         1 9W6      -0.299600
     13 C5          -2.9390    -0.0010    -0.0350 cc         1 9W6      -0.083000
     14 C6          -4.2420    -0.0020     0.2050 cd         1 9W6      -0.044100
     15 C7          -2.8970    -0.0050     2.3110 cd         1 9W6       0.072500
     16 C8          -3.2190    -0.0150     4.6560 c          1 9W6       0.500800
     17 C9          -2.6710    -0.0210     6.0280 cc         1 9W6       0.325200
     18 N1          -2.3840    -0.0100     3.5970 ns         1 9W6       0.046900
     19 N2           0.3530    -0.0330     9.5010 nb         1 9W6      -0.582000
     20 N3          -1.4150    -0.0150     6.3210 nd         1 9W6      -0.393100
     21 O1           1.9560    -0.0050     1.0520 o          1 9W6      -0.575000
     22 O2          -0.0640     0.0000     2.2210 o          1 9W6      -0.593100
     23 O3          -4.4210    -0.0150     4.4810 o          1 9W6      -0.594100
     24 S           -4.5580    -0.0010     1.9310 ss         1 9W6      -0.138800
     25 S1          -3.6400    -0.0270     7.4970 ss         1 9W6      -0.127100
     26 H1          -0.5000     0.0360    -0.8660 hn         1 9W6       0.179500
     27 H2           3.7210    -0.8700    -3.0370 hc         1 9W6       0.011033
     28 H3           3.7210     0.8990    -3.0290 hc         1 9W6       0.011033
     29 H4           5.1370     0.0110    -2.4480 hc         1 9W6       0.011033
     30 H5           3.8050     0.8870    -0.5580 h1         1 9W6       0.011700
     31 H6           3.8050    -0.8820    -0.5660 h1         1 9W6       0.011700
     32 H7          -2.8020    -0.0310    10.5370 ha         1 9W6       0.124000
     33 H8          -0.5110    -0.0420    11.3960 h4         1 9W6      -0.014900
     34 H9           1.0970    -0.0220     7.5670 h4         1 9W6      -0.004900
     35 H10         -2.5170    -0.0010    -1.0330 ha         1 9W6       0.116000
     36 H11         -5.0090    -0.0010    -0.5610 h4         1 9W6       0.152000
     37 H12         -1.3940    -0.0480     3.7400 hn         1 9W6       0.235500
@<TRIPOS>BOND
     1     1    10 1   
     2     1    11 1   
     3     1    26 1   
     4     2     4 1   
     5     2    27 1   
     6     2    28 1   
     7     2    29 1   
     8     3     4 1   
     9     3    10 1   
    10     4    30 1   
    11     4    31 1   
    12     5     6 ar  
    13     5     9 ar  
    14     5    25 1   
    15     6     7 ar  
    16     6    32 1   
    17     7    19 ar  
    18     7    33 1   
    19     8     9 ar  
    20     8    19 ar  
    21     8    34 1   
    22     9    20 1   
    23    10    21 2   
    24    11    12 1   
    25    11    22 2   
    26    12    13 1   
    27    12    15 2   
    28    13    14 2   
    29    13    35 1   
    30    14    24 1   
    31    14    36 1   
    32    15    18 1   
    33    15    24 1   
    34    16    17 1   
    35    16    18 1   
    36    16    23 2   
    37    17    20 2   
    38    17    25 1   
    39    18    37 1   
@<TRIPOS>SUBSTRUCTURE
     1 9W6         1 TEMP              0 ****  ****    0 ROOT
