@<TRIPOS>MOLECULE
molecule
   37    39     1     0     0
SMALL
bcc


@<TRIPOS>ATOM
      1 N            0.0000     0.0000     0.0000 ns         1 9W6      -0.559500
      2 C            4.0550     0.0120    -2.5040 c3         1 9W6      -0.098100
      3 O            2.0210     0.0050    -1.1660 os         1 9W6      -0.446900
      4 C1           3.4710     0.0050    -1.0910 c3         1 9W6       0.165400
      5 C10         -2.1750    -0.0300     8.4720 ca         1 9W6      -0.037100
      6 C11         -1.9630    -0.0310     9.8520 ca         1 9W6      -0.216300
      7 C12         -0.6830    -0.0320    10.3270 ca         1 9W6       0.435200
      8 C13          0.2160    -0.0210     8.1980 ca         1 9W6       0.500200
      9 C14         -1.0680    -0.0250     7.6060 ca         1 9W6      -0.017900
     10 C2           1.3480     0.0000     0.0000 c          1 9W6       0.740100
     11 C3          -0.6730     0.0000     1.1680 c          1 9W6       0.716700
     12 C4          -2.1380     0.0000     1.1680 cc         1 9W6      -0.276600
     13 C5          -2.9390    -0.0010    -0.0350 cc         1 9W6      -0.112000
     14 C6          -4.2420    -0.0020     0.2050 cd         1 9W6      -0.145100
     15 C7          -2.8970    -0.0050     2.3110 cd         1 9W6       0.141500
     16 C8          -3.2190    -0.0150     4.6560 c          1 9W6       0.611800
     17 C9          -2.6710    -0.0210     6.0280 cd         1 9W6       0.348200
     18 N1          -2.3840    -0.0100     3.5970 ns         1 9W6      -0.403100
     19 N2           0.3530    -0.0330     9.5010 nb         1 9W6      -0.687000
     20 N3          -1.4150    -0.0150     6.3210 nc         1 9W6      -0.535100
     21 O1           1.9560    -0.0050     1.0520 o          1 9W6      -0.538000
     22 O2          -0.0640     0.0000     2.2210 o          1 9W6      -0.558100
     23 O3          -4.4210    -0.0150     4.4810 o          1 9W6      -0.581100
     24 S           -4.5580    -0.0010     1.9310 ss         1 9W6       0.039200
     25 S1          -3.6400    -0.0270     7.4970 ss         1 9W6      -0.008100
     26 H1          -0.5000     0.0360    -0.8660 hn         1 9W6       0.332500
     27 H2           3.7210    -0.8700    -3.0370 hc         1 9W6       0.049033
     28 H3           3.7210     0.8990    -3.0290 hc         1 9W6       0.049033
     29 H4           5.1370     0.0110    -2.4480 hc         1 9W6       0.049033
     30 H5           3.8050     0.8870    -0.5580 h1         1 9W6       0.052700
     31 H6           3.8050    -0.8820    -0.5660 h1         1 9W6       0.052700
     32 H7          -2.8020    -0.0310    10.5370 ha         1 9W6       0.148000
     33 H8          -0.5110    -0.0420    11.3960 h4         1 9W6       0.032100
     34 H9           1.0970    -0.0220     7.5670 h4         1 9W6       0.047100
     35 H10         -2.5170    -0.0010    -1.0330 ha         1 9W6       0.144000
     36 H11         -5.0090    -0.0010    -0.5610 h4         1 9W6       0.175000
     37 H12         -1.3940    -0.0480     3.7400 hn         1 9W6       0.391500
@<TRIPOS>BOND
     1     8    19 ar
     2     8     9 ar
     3    23    16 2
     4    19     7 ar
     5    20     9 1
     6    20    17 2
     7     9     5 ar
     8    16    17 1
     9    16    18 1
    10    17    25 1
    11    24    14 1
    12    24    15 1
    13     7     6 ar
    14     5     6 ar
    15     5    25 1
    16    18    15 1
    17    14    13 2
    18    15    12 2
    19    13    12 1
    20    12    11 1
    21    11     1 1
    22    11    22 2
    23     1    10 1
    24     3    10 1
    25     3     4 1
    26    10    21 2
    27     2     4 1
    28     1    26 1
    29     2    27 1
    30     2    28 1
    31     2    29 1
    32     4    30 1
    33     4    31 1
    34     6    32 1
    35     7    33 1
    36     8    34 1
    37    13    35 1
    38    14    36 1
    39    18    37 1
@<TRIPOS>SUBSTRUCTURE
     1 9W6         1 TEMP              0 ****  ****    0 ROOT
