@<TRIPOS>MOLECULE
molecule
   32    33     1     0     0
SMALL
bcc


@<TRIPOS>ATOM
      1 C            0.0000     0.0000     0.0000 c3         1 9W7      -0.090100
      2 F            1.6600     2.3350     1.5660 f          1 9W7      -0.128900
      3 N            8.9510     0.1000     6.1500 no         1 9W7       0.299200
      4 O            3.3390    -2.3420     3.8820 oh         1 9W7      -0.506100
      5 Cl           4.1860    -0.2450     8.1570 cl         1 9W7      -0.066400
      6 C1           1.5310     0.0000     0.0000 c3         1 9W7      -0.039100
      7 O1           3.4080     0.0090     5.3160 os         1 9W7      -0.216200
      8 C2           2.0320     0.0000     1.4210 ca         1 9W7      -0.090300
      9 O2           9.7070     0.2210     5.2030 o          1 9W7      -0.205000
     10 C3           2.4590    -1.1790     2.0030 ca         1 9W7      -0.143000
     11 O3           9.3990    -0.0020     7.2790 o          1 9W7      -0.205000
     12 C4           2.9210    -1.1810     3.3090 ca         1 9W7       0.093100
     13 C5           2.9550     0.0060     4.0330 ca         1 9W7       0.083100
     14 C6           4.7510     0.0310     5.5180 ca         1 9W7       0.193100
     15 C7           5.6140     0.1690     4.4420 ca         1 9W7      -0.203000
     16 C8           6.9790     0.1920     4.6500 ca         1 9W7      -0.033000
     17 C9           7.4870     0.0760     5.9310 ca         1 9W7      -0.187200
     18 C10          6.6300    -0.0620     7.0070 ca         1 9W7      -0.034000
     19 C11          5.2630    -0.0780     6.8040 ca         1 9W7      -0.012600
     20 C12          2.5270     1.1870     3.4460 ca         1 9W7      -0.154000
     21 C13          2.0720     1.1830     2.1390 ca         1 9W7       0.130900
     22 H           -0.3610    -0.3640    -0.9540 hc         1 9W7       0.041367
     23 HA          -0.3610     1.0080     0.1620 hc         1 9W7       0.041367
     24 HB          -0.3610    -0.6450     0.7920 hc         1 9W7       0.041367
     25 HO           2.6070    -2.9290     3.9750 ho         1 9W7       0.431000
     26 H1           1.8920     0.8850    -0.5110 hc         1 9W7       0.058200
     27 H1A          1.8920    -0.8840    -0.5110 hc         1 9W7       0.058200
     28 H3           2.4330    -2.1030     1.4360 ha         1 9W7       0.155000
     29 H7           5.2180     0.2600     3.4370 ha         1 9W7       0.164000
     30 H8           7.6530     0.3000     3.8080 ha         1 9W7       0.171000
     31 H10          7.0300    -0.1580     8.0090 ha         1 9W7       0.182000
     32 H12          2.5000     2.1020     4.0260 ha         1 9W7       0.168000
@<TRIPOS>BOND
     1     1     6 1
     2     2    21 1
     3     3     9 1
     4     3    11 1
     5     3    17 1
     6     4    12 1
     7     5    19 1
     8     6     8 1
     9     7    13 1
    10     7    14 1
    11     8    10 ar
    12     8    21 ar
    13    10    12 ar
    14    12    13 ar
    15    13    20 ar
    16    14    15 ar
    17    14    19 ar
    18    15    16 ar
    19    16    17 ar
    20    17    18 ar
    21    18    19 ar
    22    20    21 ar
    23     1    22 1
    24     1    23 1
    25     1    24 1
    26     4    25 1
    27     6    26 1
    28     6    27 1
    29    10    28 1
    30    15    29 1
    31    16    30 1
    32    18    31 1
    33    20    32 1
@<TRIPOS>SUBSTRUCTURE
     1 9W7         1 TEMP              0 ****  ****    0 ROOT
