@<TRIPOS>MOLECULE
9W8
   41    46     1     0     0
SMALL
bcc


@<TRIPOS>ATOM
      1 C13          0.0000     0.0000     0.0000 c2         1 9W8      -0.021000
      2 C15          2.0010     0.0000     1.1380 c2         1 9W8       0.006500
      3 C17         -0.0790    -0.0000     2.3010 c2         1 9W8       0.006500
      4 C20         -1.6450    -3.3630    -4.3940 DU         1 9W8      -0.443000
      5 C02          0.6040    -4.6970    -3.9610 c2         1 9W8      -0.014000
      6 C03          0.4700    -3.9910    -5.1040 c2         1 9W8      -0.350000
      7 C04          0.1360    -2.5350    -5.0450 c2         1 9W8       0.346000
      8 O05         -0.0040    -1.9150    -6.0450 o          1 9W8      -0.290000
      9 C06         -0.7520    -2.3030    -3.8470 DU         1 9W8      -0.131000
     10 C07         -1.5040    -0.9990    -3.7860 c3         1 9W8      -0.166000
     11 C08         -0.5110     0.1580    -3.6470 c3         1 9W8      -0.358000
     12 C09          0.2640     0.0050    -2.3370 c3         1 9W8       0.123000
     13 N10         -0.6750     0.0060    -1.2070 nh         1 9W8       0.035000
     14 C11         -1.6100    -1.1240    -1.2940 c3         1 9W8       0.468000
     15 C12         -2.4400    -1.0040    -2.5740 c3         1 9W8       0.110000
     16 N14          1.3260     0.0000     0.0000 n2         1 9W8      -0.124500
     17 C16          1.3070     0.0000     2.3370 c2         1 9W8      -0.245000
     18 N18         -0.6940    -0.0010     1.1290 n2         1 9W8      -0.124500
     19 C19         -1.1440    -3.4770    -2.9540 cu         1 9W8      -0.196000
     20 N21          0.4200    -4.0270    -2.6480 na         1 9W8      -0.063000
     21 H1           3.0840     0.0000     1.1250 h4         1 9W8       0.123500
     22 H2          -0.6450    -0.0000     3.2240 h4         1 9W8       0.123500
     23 H3          -1.0380    -3.9880    -5.0380 ha         1 9W8       0.187000
     24 H4          -1.5730    -2.3320    -4.7210 DU         1 9W8       0.312000
     25 H5          -2.6770    -3.6860    -4.4450 ha         1 9W8       0.187000
     26 H6           1.5340    -6.3960    -4.8880 hc         1 9W8       0.058000
     27 H7          -0.0020    -6.7540    -4.0870 hc         1 9W8       0.058000
     28 H8           1.4560    -6.4820    -3.1230 hc         1 9W8       0.058000
     29 H9           0.6450    -4.4700    -6.0600 ha         1 9W8       0.148000
     30 H11         -2.0860    -0.8670    -4.6900 hc         1 9W8       0.110000
     31 H12          0.2240     0.0860    -4.4400 hc         1 9W8       0.086500
     32 H13         -0.0120     0.0790    -2.6890 hc         1 9W8       0.086500
     33 H14          0.8800     0.8840    -2.1890 h1         1 9W8       0.074000
     34 H15          0.9000    -0.8690    -2.4060 h1         1 9W8       0.074000
     35 H16         -1.9960    -1.1830    -2.3040 DU         1 9W8      -0.159000
     36 H17         -1.0770    -2.0380    -1.0620 h1         1 9W8       0.126000
     37 H18         -3.0590    -1.8920    -2.6140 hc         1 9W8       0.033000
     38 H19         -1.8440    -1.0250    -1.6700 DU         1 9W8      -0.381000
     39 H20          1.8470     0.0000     3.2760 ha         1 9W8       0.126000
     40 H10          0.3770    -4.5690    -1.8070 hn         1 9W8       0.087000
     41 C01          0.9210    -6.1910    -4.0190 c3         1 9W8      -0.086000
@<TRIPOS>BOND
     1     1    13 1   
     2     1    16 1   
     3     1    18 1   
     4     2    16 1   
     5     2    17 1   
     6     2    21 1   
     7     3    17 1   
     8     3    18 1   
     9     3    22 1   
    10     4     9 1   
    11     4    19 1   
    12     4    23 1   
    13     4    24 1   
    14     4    25 1   
    15     5     6 1   
    16     5    20 1   
    17     5    41 1   
    18     6     7 1   
    19     6    29 1   
    20     7     8 1   
    21     7     9 1   
    22     9    10 1   
    23     9    19 1   
    24     9    24 1   
    25    10    11 1   
    26    10    15 1   
    27    10    30 1   
    28    11    12 1   
    29    11    31 1   
    30    11    32 1   
    31    12    13 1   
    32    12    33 1   
    33    12    34 1   
    34    13    14 1   
    35    14    15 1   
    36    14    35 1   
    37    14    36 1   
    38    15    37 1   
    39    15    38 1   
    40    17    39 1   
    41    19    20 1   
    42    20    40 1   
    43    26    41 1   
    44    27    41 1   
    45    28    41 1   
    46    35    38 1   
@<TRIPOS>SUBSTRUCTURE
     1 9W8         1 TEMP              0 ****  ****    0 ROOT
