@<TRIPOS>MOLECULE
molecule
   41    43     1     0     0
SMALL
bcc


@<TRIPOS>ATOM
      1 C13          0.0000     0.0000     0.0000 ca         1 9W8       0.849900
      2 C15          2.0010     0.0000     1.1380 ca         1 9W8       0.483700
      3 C17         -0.0790    -0.0000     2.3010 ca         1 9W8       0.483700
      4 C20         -1.6450    -3.3630    -4.3940 c3         1 9W8      -0.355900
      5 C02          0.6040    -4.6970    -3.9610 cc         1 9W8       0.098800
      6 C03          0.4700    -3.9910    -5.1040 cd         1 9W8      -0.367200
      7 C04          0.1360    -2.5350    -5.0450 c          1 9W8       0.558500
      8 O05         -0.0040    -1.9150    -6.0450 o          1 9W8      -0.498100
      9 C06         -0.7520    -2.3030    -3.8470 cc         1 9W8      -0.170400
     10 C07         -1.5040    -0.9990    -3.7860 c3         1 9W8      -0.163500
     11 C08         -0.5110     0.1580    -3.6470 c3         1 9W8      -0.189900
     12 C09          0.2640     0.0050    -2.3370 c3         1 9W8       0.304300
     13 N10         -0.6750     0.0060    -1.2070 nh         1 9W8      -0.680300
     14 C11         -1.6100    -1.1240    -1.2940 c3         1 9W8       0.304300
     15 C12         -2.4400    -1.0040    -2.5740 c3         1 9W8      -0.189900
     16 N14          1.3260     0.0000     0.0000 nb         1 9W8      -0.753000
     17 C16          1.3070     0.0000     2.3370 ca         1 9W8      -0.404600
     18 N18         -0.6940    -0.0010     1.1290 nb         1 9W8      -0.753000
     19 C19         -1.1440    -3.4770    -2.9540 cd         1 9W8      -0.023200
     20 N21          0.4200    -4.0270    -2.6480 na         1 9W8      -0.619800
     21 H1           3.0840     0.0000     1.1250 h4         1 9W8       0.036100
     22 H2          -0.6450    -0.0000     3.2240 h4         1 9W8       0.036100
     23 H3          -1.0380    -3.9880    -5.0380 hc         1 9W8       0.195700
     24 H4          -1.5730    -2.3320    -4.7210 hc         1 9W8       0.195700
     25 H5          -2.6770    -3.6860    -4.4450 hc         1 9W8       0.195700
     26 H6           1.5340    -6.3960    -4.8880 hc         1 9W8       0.055033
     27 H7          -0.0020    -6.7540    -4.0870 hc         1 9W8       0.055033
     28 H8           1.4560    -6.4820    -3.1230 hc         1 9W8       0.055033
     29 H9           0.6450    -4.4700    -6.0600 ha         1 9W8       0.166000
     30 H11         -2.0860    -0.8670    -4.6900 hc         1 9W8       0.104700
     31 H12          0.2240     0.0860    -4.4400 hc         1 9W8       0.070700
     32 H13         -0.0120     0.0790    -2.6890 hc         1 9W8       0.070700
     33 H14          0.8800     0.8840    -2.1890 h1         1 9W8       0.064200
     34 H15          0.9000    -0.8690    -2.4060 h1         1 9W8       0.064200
     35 H16         -1.9960    -1.1830    -2.3040 h1         1 9W8       0.064200
     36 H17         -1.0770    -2.0380    -1.0620 h1         1 9W8       0.064200
     37 H18         -3.0590    -1.8920    -2.6140 hc         1 9W8       0.070700
     38 H19         -1.8440    -1.0250    -1.6700 hc         1 9W8       0.070700
     39 H20          1.8470     0.0000     3.2760 ha         1 9W8       0.151000
     40 H10          0.3770    -4.5690    -1.8070 hn         1 9W8       0.375800
     41 C01          0.9210    -6.1910    -4.0190 c3         1 9W8      -0.075900
@<TRIPOS>BOND
     1     8     7 2
     2    14    13 1
     3    14    15 1
     4    12    13 1
     5    12    11 1
     6     7     6 1
     7     7     9 1
     8    13     1 1
     9    10    15 1
    10    10    11 1
    11    10     9 1
    12     6     5 2
    13     1    18 ar
    14     1    16 ar
    15    18     3 ar
    16     9    19 2
    17    16     2 ar
    18     3    17 ar
    19     5    41 1
    20     5    20 1
    21    19    20 1
    22    19     4 1
    23     2    17 ar
    24     2    21 1
    25     3    22 1
    26     4    23 1
    27     4    24 1
    28     4    25 1
    29    41    26 1
    30    41    27 1
    31    41    28 1
    32     6    29 1
    33    10    30 1
    34    11    31 1
    35    11    32 1
    36    12    33 1
    37    12    34 1
    38    14    35 1
    39    14    36 1
    40    15    37 1
    41    15    38 1
    42    17    39 1
    43    20    40 1
@<TRIPOS>SUBSTRUCTURE
     1 9W8         1 TEMP              0 ****  ****    0 ROOT
