@<TRIPOS>MOLECULE
molecule
   67    72     1     0     0
SMALL
bcc


@<TRIPOS>ATOM
      1 C4           0.0000     0.0000     0.0000 ca         1 9WA      -0.098000
      2 C16          5.5740    -2.0860     4.9050 ca         1 9WA      -0.099000
      3 C12          3.5330    -2.0710     6.1620 ca         1 9WA      -0.099000
      4 C26         -3.4360     2.2150     1.1930 ca         1 9WA      -0.094000
      5 C3           1.3620     0.0000     0.0000 ca         1 9WA      -0.169300
      6 C15          5.8140    -3.3860     5.3050 ca         1 9WA      -0.145000
      7 C13          3.7700    -3.3690     6.5700 ca         1 9WA      -0.145000
      8 C27         -3.8560     3.3600     0.5340 ca         1 9WA      -0.199300
      9 C18          4.9400    -7.3060     7.5020 cc         1 9WA      -0.346300
     10 C6          -0.0760     0.0080     2.3940 ca         1 9WA      -0.080000
     11 C19          6.1290    -7.3070     6.7630 cc         1 9WA       0.340200
     12 C29         -2.4180     1.5110    -0.8490 ca         1 9WA       0.433200
     13 C22         -2.5360    -1.4170    -0.9320 cd         1 9WA       0.317200
     14 C17          4.3570    -6.0930     7.3530 cd         1 9WA      -0.107300
     15 C23         -3.6500    -3.0900    -0.1460 cc         1 9WA       0.404400
     16 C7           1.3260     0.0010     2.4320 ca         1 9WA      -0.180300
     17 C11          4.4360    -1.4280     5.3350 ca         1 9WA      -0.098300
     18 C5          -0.7180     0.0070     1.1930 ca         1 9WA      -0.122300
     19 C25         -2.7040     1.2750     0.4820 ca         1 9WA      -0.205600
     20 C9           3.3920    -0.0080     3.6190 ca         1 9WA      -0.194600
     21 C2           2.0580     0.0000     1.2190 ca         1 9WA       0.473600
     22 C14          4.9120    -4.0320     6.1390 ca         1 9WA       0.041800
     23 C8           2.0270     0.0010     3.6560 ca         1 9WA       0.097400
     24 C28         -3.5330     3.5270    -0.7990 ca         1 9WA       0.339600
     25 C21         -2.7130    -1.1830     0.3810 cc         1 9WA      -0.225900
     26 C1           4.0550    -0.0140     2.3870 ca         1 9WA       0.687600
     27 C            6.0400    -0.0280     1.0840 c3         1 9WA       0.135700
     28 C10          4.1810    -0.0080     4.9030 c3         1 9WA       0.017200
     29 C20         -2.2250     0.0150     1.1550 c3         1 9WA       0.341700
     30 C30         -3.9850     4.7670    -1.5250 c3         1 9WA       0.586600
     31 N3          -3.1210    -2.5870    -1.2280 nd         1 9WA      -0.691000
     32 N5          -2.8340     2.6120    -1.4430 nb         1 9WA      -0.641000
     33 N2           6.2560    -6.1370     6.1900 nd         1 9WA      -0.507800
     34 N            3.3960    -0.0080     1.2480 nb         1 9WA      -0.768000
     35 N1           5.1500    -5.3520     6.5460 na         1 9WA       0.149300
     36 N4          -3.4230    -2.2430     0.8800 na         1 9WA      -0.162900
     37 O1          -2.7350    -0.0380     2.4880 oh         1 9WA      -0.603800
     38 O            5.4110    -0.0220     2.3670 os         1 9WA      -0.440100
     39 F2          -3.0060     5.7610    -1.4020 f          1 9WA      -0.213967
     40 F           -4.1810     4.4710    -2.8780 f          1 9WA      -0.213967
     41 F1          -5.1840     5.2230    -0.9680 f          1 9WA      -0.213967
     42 Cl           1.1770     0.0090     5.1700 cl         1 9WA      -0.086400
     43 H4          -0.5330    -0.0000    -0.9430 ha         1 9WA       0.141000
     44 H12          2.6430    -1.5530     6.4980 ha         1 9WA       0.143500
     45 H26         -3.6750     2.0570     2.2380 ha         1 9WA       0.147000
     46 H3           1.9050    -0.0060    -0.9370 ha         1 9WA       0.157000
     47 H15          6.7050    -3.9020     4.9680 ha         1 9WA       0.147000
     48 H13          3.0630    -3.8710     7.2200 ha         1 9WA       0.147000
     49 H27         -4.4300     4.1150     1.0580 ha         1 9WA       0.158000
     50 H18          4.5550    -8.1300     8.0900 ha         1 9WA       0.157000
     51 H6          -0.6450     0.0130     3.3160 ha         1 9WA       0.150000
     52 H19          6.8240    -8.1330     6.6800 h4         1 9WA       0.051100
     53 H29         -1.8470     0.7820    -1.4110 h4         1 9WA       0.045100
     54 H22         -2.0150    -0.7710    -1.6290 h4         1 9WA       0.039100
     55 H17          3.4230    -5.7740     7.7990 h4         1 9WA       0.172000
     56 H23         -4.1880    -4.0280    -0.0830 h5         1 9WA       0.068100
     57 H'1          5.7340    -0.9110     0.5360 h1         1 9WA       0.051033
     58 H'2          5.7470     0.8580     0.5340 h1         1 9WA       0.051033
     59 H'3          7.1160    -0.0360     1.2100 h1         1 9WA       0.051033
     60 H103         3.6190     0.5080     5.6730 hc         1 9WA       0.069200
     61 H102         5.1260     0.4980     4.7460 hc         1 9WA       0.069200
     62 H1          -2.5930     0.7910     2.9130 ho         1 9WA       0.415000
     63 C24         -3.8510    -2.4250     2.2700 c3         1 9WA       0.039600
     64 H16          6.2790    -1.5810     4.2560 ha         1 9WA       0.143500
     65 H242        -4.3680    -3.3720     2.3670 h1         1 9WA       0.058033
     66 H241        -4.5170    -1.6190     2.5510 h1         1 9WA       0.058033
     67 H243        -2.9830    -2.4200     2.9180 h1         1 9WA       0.058033
@<TRIPOS>BOND
     1     9    14 2
     2     9    11 1
     3    14    35 1
     4    11    33 2
     5    35    33 1
     6    35    22 1
     7     6    22 ar
     8     6     2 ar
     9    22     7 ar
    10     2    17 ar
    11     7     3 ar
    12    17     3 ar
    13    17    28 1
    14    28    20 1
    15    42    23 1
    16    20    23 ar
    17    20    26 ar
    18    23    16 ar
    19    38    26 1
    20    38    27 1
    21    26    34 ar
    22    16    10 ar
    23    16    21 ar
    24    10    18 ar
    25    34    21 ar
    26    63    36 1
    27    21     5 ar
    28    37    29 1
    29    18    29 1
    30    18     1 ar
    31    29    25 1
    32    29    19 1
    33     5     1 ar
    34    36    25 1
    35    36    15 1
    36     4    19 ar
    37     4     8 ar
    38    25    13 2
    39    19    12 ar
    40    15    31 2
    41     8    24 ar
    42    12    32 ar
    43    13    31 1
    44    41    30 1
    45    24    32 ar
    46    24    30 1
    47    30    39 1
    48    30    40 1
    49     1    43 1
    50     2    64 1
    51     3    44 1
    52     4    45 1
    53     5    46 1
    54     6    47 1
    55     7    48 1
    56     8    49 1
    57     9    50 1
    58    10    51 1
    59    11    52 1
    60    12    53 1
    61    13    54 1
    62    14    55 1
    63    15    56 1
    64    63    65 1
    65    63    66 1
    66    63    67 1
    67    27    57 1
    68    27    58 1
    69    27    59 1
    70    28    60 1
    71    28    61 1
    72    37    62 1
@<TRIPOS>SUBSTRUCTURE
     1 9WA         1 TEMP              0 ****  ****    0 ROOT
