@<TRIPOS>MOLECULE
9WB
   28    29     1     0     0
SMALL
bcc


@<TRIPOS>ATOM
      1 C10          0.0000     0.0000     0.0000 cc         1 9WB      -0.195400
      2 C21         -2.2570    -1.0740    -2.8070 ca         1 9WB      -0.102500
      3 C01          2.1110    -0.0020     3.7150 c3         1 9WB       0.058100
      4 C05          1.4020    -0.0010     2.3860 cc         1 9WB      -0.068200
      5 C06          2.1320     0.0000     1.2490 cd         1 9WB      -0.283200
      6 C08          1.4680     0.0000     0.0000 c          1 9WB       0.623500
      7 O09          2.0970     0.0000    -1.0470 o          1 9WB      -0.616100
      8 C11         -0.6500    -0.0010     1.1990 cd         1 9WB      -0.071200
      9 C12         -2.1570    -0.0020     1.2340 c3         1 9WB       0.056100
     10 N16          0.0490    -0.0020     2.3590 na         1 9WB      -0.038800
     11 C18         -0.7580     0.0060    -1.2740 ca         1 9WB      -0.005800
     12 C19         -1.5540    -1.0850    -1.6210 ca         1 9WB      -0.088000
     13 C23         -2.1740     0.0170    -3.6530 ca         1 9WB      -0.105000
     14 C25         -1.3870     1.1030    -3.3160 ca         1 9WB      -0.102500
     15 C27         -0.6790     1.1030    -2.1300 ca         1 9WB      -0.088000
     16 H02          1.8180    -0.8780     4.2800 hc         1 9WB       0.016367
     17 H03          1.8430     0.8910     4.2680 hc         1 9WB       0.016367
     18 H04          3.1820    -0.0180     3.5530 hc         1 9WB       0.016367
     19 H07          3.2150    -0.0000     1.2940 ha         1 9WB       0.140000
     20 H13         -2.4960     0.3620     2.1960 hc         1 9WB       0.019367
     21 H14         -2.5360     0.6430     0.4500 hc         1 9WB       0.019367
     22 H15         -2.5210    -1.0100     1.0800 hc         1 9WB       0.019367
     23 H17         -0.4520    -0.0020     3.2250 hn         1 9WB       0.267800
     24 H20         -1.6200    -1.9400    -0.9590 ha         1 9WB       0.107000
     25 H24         -2.7280     0.0200    -4.5840 ha         1 9WB       0.099000
     26 H26         -1.3260     1.9550    -3.9820 ha         1 9WB       0.100500
     27 H28         -0.0620     1.9540    -1.8660 ha         1 9WB       0.107000
     28 H22         -2.8750    -1.9220    -3.0770 ha         1 9WB       0.100500
@<TRIPOS>BOND
     1     1     6 1   
     2     1     8 2   
     3     1    11 1   
     4     2    12 ar  
     5     2    13 ar  
     6     2    28 1   
     7     3     4 1   
     8     3    16 1   
     9     3    17 1   
    10     3    18 1   
    11     4     5 2   
    12     4    10 1   
    13     5     6 1   
    14     5    19 1   
    15     6     7 2   
    16     8     9 1   
    17     8    10 1   
    18     9    20 1   
    19     9    21 1   
    20     9    22 1   
    21    10    23 1   
    22    11    12 ar  
    23    11    15 ar  
    24    12    24 1   
    25    13    14 ar  
    26    13    25 1   
    27    14    15 ar  
    28    14    26 1   
    29    15    27 1   
@<TRIPOS>SUBSTRUCTURE
     1 9WB         1 TEMP              0 ****  ****    0 ROOT
