@<TRIPOS>MOLECULE
molecule
   28    29     1     0     0
SMALL
bcc


@<TRIPOS>ATOM
      1 C10          0.0000     0.0000     0.0000 cc         1 9WB      -0.209400
      2 C21         -2.2570    -1.0740    -2.8070 ca         1 9WB      -0.131500
      3 C01          2.1110    -0.0020     3.7150 c3         1 9WB      -0.063900
      4 C05          1.4020    -0.0010     2.3860 cd         1 9WB       0.124800
      5 C06          2.1320     0.0000     1.2490 cc         1 9WB      -0.309200
      6 C08          1.4680     0.0000     0.0000 c          1 9WB       0.575500
      7 O09          2.0970     0.0000    -1.0470 o          1 9WB      -0.575100
      8 C11         -0.6500    -0.0010     1.1990 cd         1 9WB       0.124800
      9 C12         -2.1570    -0.0020     1.2340 c3         1 9WB      -0.057900
     10 N16          0.0490    -0.0020     2.3590 na         1 9WB      -0.576800
     11 C18         -0.7580     0.0060    -1.2740 ca         1 9WB      -0.017800
     12 C19         -1.5540    -1.0850    -1.6210 ca         1 9WB      -0.110000
     13 C23         -2.1740     0.0170    -3.6530 ca         1 9WB      -0.129000
     14 C25         -1.3870     1.1030    -3.3160 ca         1 9WB      -0.131500
     15 C27         -0.6790     1.1030    -2.1300 ca         1 9WB      -0.110000
     16 H02          1.8180    -0.8780     4.2800 hc         1 9WB       0.056367
     17 H03          1.8430     0.8910     4.2680 hc         1 9WB       0.056367
     18 H04          3.1820    -0.0180     3.5530 hc         1 9WB       0.056367
     19 H07          3.2150    -0.0000     1.2940 ha         1 9WB       0.162000
     20 H13         -2.4960     0.3620     2.1960 hc         1 9WB       0.057367
     21 H14         -2.5360     0.6430     0.4500 hc         1 9WB       0.057367
     22 H15         -2.5210    -1.0100     1.0800 hc         1 9WB       0.057367
     23 H17         -0.4520    -0.0020     3.2250 hn         1 9WB       0.444800
     24 H20         -1.6200    -1.9400    -0.9590 ha         1 9WB       0.133000
     25 H24         -2.7280     0.0200    -4.5840 ha         1 9WB       0.126000
     26 H26         -1.3260     1.9550    -3.9820 ha         1 9WB       0.128000
     27 H28         -0.0620     1.9540    -1.8660 ha         1 9WB       0.133000
     28 H22         -2.8750    -1.9220    -3.0770 ha         1 9WB       0.128000
@<TRIPOS>BOND
     1     2    13 ar
     2     2    12 ar
     3    13    14 ar
     4    12    11 ar
     5    14    15 ar
     6    11    15 ar
     7    11     1 1
     8     7     6 2
     9     1     6 1
    10     1     8 2
    11     9     8 1
    12     6     5 1
    13     8    10 1
    14     5     4 2
    15    10     4 1
    16     4     3 1
    17     2    28 1
    18     3    16 1
    19     3    17 1
    20     3    18 1
    21     5    19 1
    22     9    20 1
    23     9    21 1
    24     9    22 1
    25    10    23 1
    26    12    24 1
    27    13    25 1
    28    14    26 1
    29    15    27 1
@<TRIPOS>SUBSTRUCTURE
     1 9WB         1 TEMP              0 ****  ****    0 ROOT
