@<TRIPOS>MOLECULE
9WD
   75    80     1     0     0
SMALL
bcc


@<TRIPOS>ATOM
      1 C10          0.0000     0.0000     0.0000 ca         1 9WD      -0.210600
      2 C11         -0.7560     0.0010    -1.3040 c3         1 9WD       0.090200
      3 C12         -1.0080    -1.4190    -1.7390 ca         1 9WD      -0.092300
      4 C13         -2.1600    -2.0690    -1.3390 ca         1 9WD      -0.081500
      5 C14         -2.3940    -3.3710    -1.7370 ca         1 9WD      -0.106000
      6 C15         -1.4710    -4.0260    -2.5400 ca         1 9WD      -0.142200
      7 C16         -0.3150    -3.3710    -2.9420 ca         1 9WD      -0.106000
      8 C19         -1.4800    -7.3050    -3.8890 cc         1 9WD      -0.324300
      9 C20         -2.6840    -7.2990    -3.1760 cc         1 9WD       0.400200
     10 C21         -0.4940    -0.0000     6.1130 c3         1 9WD       0.348400
     11 C22         -0.5690    -1.4100     6.6390 cc         1 9WD      -0.475900
     12 C24         -1.1220    -3.5090     6.9200 cc         1 9WD       0.226400
     13 C27         -0.4480     0.9620     8.4190 c3         1 9WD      -0.058900
     14 C30          0.4790     2.2690     6.5000 c3         1 9WD      -0.058900
     15 C01          3.4880    -0.0010    -1.1300 c3         1 9WD       0.253700
     16 C02          1.3990     0.0000     0.0000 ca         1 9WD       0.647600
     17 N01          2.0890     0.0000     1.1200 nb         1 9WD      -0.659000
     18 C03          1.4810    -0.0010     2.3110 ca         1 9WD       0.424600
     19 C04          2.2230     0.0000     3.5040 ca         1 9WD      -0.154300
     20 C05          1.5770    -0.0000     4.7030 ca         1 9WD      -0.074000
     21 C06          0.1860    -0.0000     4.7690 ca         1 9WD      -0.103300
     22 C07         -0.5660    -0.0010     3.6330 ca         1 9WD      -0.069000
     23 C08          0.0660    -0.0010     2.3810 ca         1 9WD      -0.179300
     24 C09         -0.6800     0.0060     1.1840 ca         1 9WD       0.029400
     25 Cl          -2.4150     0.0070     1.2140 cl         1 9WD       0.007600
     26 C17         -0.0890    -2.0670    -2.5440 ca         1 9WD      -0.081500
     27 N02         -1.7060    -5.3480    -2.9450 na         1 9WD       0.627300
     28 C18         -0.8980    -6.0950    -3.7320 cd         1 9WD      -0.266300
     29 N03         -2.8230    -6.1260    -2.6150 nd         1 9WD      -0.663800
     30 O02         -1.8150     0.5280     5.9780 oh         1 9WD      -0.595800
     31 C23          0.1390    -1.9230     7.6640 cd         1 9WD       0.331200
     32 N04         -0.2200    -3.2070     7.8140 nd         1 9WD      -0.619000
     33 N05         -1.3720    -2.4140     6.1710 na         1 9WD       0.318100
     34 C25         -2.3230    -2.3210     5.0590 c3         1 9WD      -0.037400
     35 C26          0.3040     0.8670     7.0890 c3         1 9WD      -0.077700
     36 C28          0.3710     1.8010     9.4050 c3         1 9WD       0.051500
     37 N            0.6680     3.1010     8.7860 n          1 9WD      -0.161800
     38 C29          1.3080     3.1230     7.4640 c3         1 9WD       0.051500
     39 C            0.7730     5.5710     8.8260 c3         1 9WD      -0.076100
     40 O           -0.2530     4.2190    10.4660 o          1 9WD      -0.649100
     41 H1          -0.1710     0.5120    -2.0600 hc         1 9WD       0.035200
     42 H2          -1.7020     0.5120    -1.1730 hc         1 9WD       0.035200
     43 H3          -2.8800    -1.5570    -0.7120 ha         1 9WD       0.117000
     44 H4          -3.2970    -3.8800    -1.4230 ha         1 9WD       0.124000
     45 H5           0.4060    -3.8790    -3.5700 ha         1 9WD       0.124000
     46 H6          -1.0840    -8.1340    -4.4630 ha         1 9WD       0.134000
     47 H7          -3.3840    -8.1230    -3.1060 h4         1 9WD       0.004100
     48 H8          -1.5960    -4.4760     6.8030 h5         1 9WD       0.026100
     49 H9          -0.5900    -0.0330     8.8240 hc         1 9WD       0.037450
     50 H10         -1.4090     1.4330     8.2570 hc         1 9WD       0.037450
     51 H11         -0.4940     2.7250     6.3590 hc         1 9WD       0.037450
     52 H12          0.9920     2.1990     5.5480 hc         1 9WD       0.037450
     53 H13          3.8870    -0.0160    -2.1370 h1         1 9WD       0.002700
     54 H14          3.8360     0.8880    -0.6170 h1         1 9WD       0.002700
     55 H15          3.8230    -0.8810    -0.5950 h1         1 9WD       0.002700
     56 H16          3.3060     0.0000     3.4700 ha         1 9WD       0.121000
     57 H17          2.1540    -0.0050     5.6200 ha         1 9WD       0.117000
     58 H18         -1.6420     0.1100     3.6960 ha         1 9WD       0.134000
     59 H19          0.8130    -1.5550    -2.8570 ha         1 9WD       0.117000
     60 H20          0.0470    -5.7800    -4.1590 h4         1 9WD       0.149000
     61 H21         -2.3480     0.2320     6.6980 ho         1 9WD       0.406000
     62 H22          0.8690    -1.3920     8.2630 h4         1 9WD       0.012100
     63 H23         -3.0320    -3.1370     5.1220 h1         1 9WD       0.033700
     64 H24         -2.8520    -1.3770     5.1150 h1         1 9WD       0.033700
     65 H25         -1.7860    -2.3790     4.1200 h1         1 9WD       0.033700
     66 H26          1.2780     0.4250     7.2580 hc         1 9WD       0.048700
     67 H27         -0.2000     1.9540    10.3120 h1         1 9WD       0.029950
     68 H28          1.2980     1.2890     9.6340 h1         1 9WD       0.029950
     69 H29          2.3090     2.7160     7.5390 h1         1 9WD       0.029950
     70 H30          1.3510     4.1430     7.1000 h1         1 9WD       0.029950
     71 H31          0.2060     5.7540     7.9210 hc         1 9WD       0.025033
     72 H32          1.8320     5.5830     8.5980 hc         1 9WD       0.025033
     73 H33          0.5520     6.3430     9.5530 hc         1 9WD       0.025033
     74 C31          0.3590     4.2490     9.4200 c          1 9WD       0.590100
     75 O01          2.0610     0.0000    -1.1840 os         1 9WD      -0.433100
@<TRIPOS>BOND
     1     1     2 1   
     2     1    16 ar  
     3     1    24 ar  
     4     2     3 1   
     5     2    41 1   
     6     2    42 1   
     7     3     4 ar  
     8     3    26 ar  
     9     4     5 ar  
    10     4    43 1   
    11     5     6 ar  
    12     5    44 1   
    13     6     7 ar  
    14     6    27 1   
    15     7    26 ar  
    16     7    45 1   
    17     8     9 1   
    18     8    28 2   
    19     8    46 1   
    20     9    29 2   
    21     9    47 1   
    22    10    11 1   
    23    10    21 1   
    24    10    30 1   
    25    10    35 1   
    26    11    31 2   
    27    11    33 1   
    28    12    32 2   
    29    12    33 1   
    30    12    48 1   
    31    13    35 1   
    32    13    36 1   
    33    13    49 1   
    34    13    50 1   
    35    14    35 1   
    36    14    38 1   
    37    14    51 1   
    38    14    52 1   
    39    15    53 1   
    40    15    54 1   
    41    15    55 1   
    42    15    75 1   
    43    16    17 ar  
    44    16    75 1   
    45    17    18 ar  
    46    18    19 ar  
    47    18    23 ar  
    48    19    20 ar  
    49    19    56 1   
    50    20    21 ar  
    51    20    57 1   
    52    21    22 ar  
    53    22    23 ar  
    54    22    58 1   
    55    23    24 ar  
    56    24    25 1   
    57    26    59 1   
    58    27    28 1   
    59    27    29 1   
    60    28    60 1   
    61    30    61 1   
    62    31    32 1   
    63    31    62 1   
    64    33    34 1   
    65    34    63 1   
    66    34    64 1   
    67    34    65 1   
    68    35    66 1   
    69    36    37 1   
    70    36    67 1   
    71    36    68 1   
    72    37    38 1   
    73    37    74 1   
    74    38    69 1   
    75    38    70 1   
    76    39    71 1   
    77    39    72 1   
    78    39    73 1   
    79    39    74 1   
    80    40    74 2   
@<TRIPOS>SUBSTRUCTURE
     1 9WD         1 TEMP              0 ****  ****    0 ROOT
