@<TRIPOS>MOLECULE
molecule
   75    80     1     0     0
SMALL
bcc


@<TRIPOS>ATOM
      1 C10          0.0000     0.0000     0.0000 ca         1 9WD      -0.197600
      2 C11         -0.7560     0.0010    -1.3040 c3         1 9WD       0.017200
      3 C12         -1.0080    -1.4190    -1.7390 ca         1 9WD      -0.096300
      4 C13         -2.1600    -2.0690    -1.3390 ca         1 9WD      -0.099500
      5 C14         -2.3940    -3.3710    -1.7370 ca         1 9WD      -0.145000
      6 C15         -1.4710    -4.0260    -2.5400 ca         1 9WD       0.040800
      7 C16         -0.3150    -3.3710    -2.9420 ca         1 9WD      -0.145000
      8 C19         -1.4800    -7.3050    -3.8890 cc         1 9WD      -0.345300
      9 C20         -2.6840    -7.2990    -3.1760 cc         1 9WD       0.339200
     10 C21         -0.4940    -0.0000     6.1130 c3         1 9WD       0.293400
     11 C22         -0.5690    -1.4100     6.6390 cc         1 9WD      -0.282900
     12 C24         -1.1220    -3.5090     6.9200 cc         1 9WD       0.405400
     13 C27         -0.4480     0.9620     8.4190 c3         1 9WD      -0.101900
     14 C30          0.4790     2.2690     6.5000 c3         1 9WD      -0.101900
     15 C01          3.4880    -0.0010    -1.1300 c3         1 9WD       0.135700
     16 C02          1.3990     0.0000     0.0000 ca         1 9WD       0.684600
     17 N01          2.0890     0.0000     1.1200 nb         1 9WD      -0.770000
     18 C03          1.4810    -0.0010     2.3110 ca         1 9WD       0.470600
     19 C04          2.2230     0.0000     3.5040 ca         1 9WD      -0.180300
     20 C05          1.5770    -0.0000     4.7030 ca         1 9WD      -0.093000
     21 C06          0.1860    -0.0000     4.7690 ca         1 9WD      -0.087300
     22 C07         -0.5660    -0.0010     3.6330 ca         1 9WD      -0.079000
     23 C08          0.0660    -0.0010     2.3810 ca         1 9WD      -0.184300
     24 C09         -0.6800     0.0060     1.1840 ca         1 9WD       0.098400
     25 Cl          -2.4150     0.0070     1.2140 cl         1 9WD      -0.082400
     26 C17         -0.0890    -2.0670    -2.5440 ca         1 9WD      -0.099500
     27 N02         -1.7060    -5.3480    -2.9450 na         1 9WD       0.148300
     28 C18         -0.8980    -6.0950    -3.7320 cd         1 9WD      -0.107300
     29 N03         -2.8230    -6.1260    -2.6150 nd         1 9WD      -0.508800
     30 O02         -1.8150     0.5280     5.9780 oh         1 9WD      -0.604800
     31 C23          0.1390    -1.9230     7.6640 cd         1 9WD       0.327200
     32 N04         -0.2200    -3.2070     7.8140 nd         1 9WD      -0.697000
     33 N05         -1.3720    -2.4140     6.1710 na         1 9WD      -0.172900
     34 C25         -2.3230    -2.3210     5.0590 c3         1 9WD       0.022600
     35 C26          0.3040     0.8670     7.0890 c3         1 9WD      -0.081700
     36 C28          0.3710     1.8010     9.4050 c3         1 9WD       0.106000
     37 N            0.6680     3.1010     8.7860 n          1 9WD      -0.496800
     38 C29          1.3080     3.1230     7.4640 c3         1 9WD       0.106000
     39 C            0.7730     5.5710     8.8260 c3         1 9WD      -0.172100
     40 O           -0.2530     4.2190    10.4660 o          1 9WD      -0.611100
     41 H1          -0.1710     0.5120    -2.0600 hc         1 9WD       0.069200
     42 H2          -1.7020     0.5120    -1.1730 hc         1 9WD       0.069200
     43 H3          -2.8800    -1.5570    -0.7120 ha         1 9WD       0.144000
     44 H4          -3.2970    -3.8800    -1.4230 ha         1 9WD       0.147000
     45 H5           0.4060    -3.8790    -3.5700 ha         1 9WD       0.147000
     46 H6          -1.0840    -8.1340    -4.4630 ha         1 9WD       0.157000
     47 H7          -3.3840    -8.1230    -3.1060 h4         1 9WD       0.050100
     48 H8          -1.5960    -4.4760     6.8030 h5         1 9WD       0.068100
     49 H9          -0.5900    -0.0330     8.8240 hc         1 9WD       0.061950
     50 H10         -1.4090     1.4330     8.2570 hc         1 9WD       0.061950
     51 H11         -0.4940     2.7250     6.3590 hc         1 9WD       0.061950
     52 H12          0.9920     2.1990     5.5480 hc         1 9WD       0.061950
     53 H13          3.8870    -0.0160    -2.1370 h1         1 9WD       0.049700
     54 H14          3.8360     0.8880    -0.6170 h1         1 9WD       0.049700
     55 H15          3.8230    -0.8810    -0.5950 h1         1 9WD       0.049700
     56 H16          3.3060     0.0000     3.4700 ha         1 9WD       0.153000
     57 H17          2.1540    -0.0050     5.6200 ha         1 9WD       0.141000
     58 H18         -1.6420     0.1100     3.6960 ha         1 9WD       0.160000
     59 H19          0.8130    -1.5550    -2.8570 ha         1 9WD       0.144000
     60 H20          0.0470    -5.7800    -4.1590 h4         1 9WD       0.173000
     61 H21         -2.3480     0.2320     6.6980 ho         1 9WD       0.417000
     62 H22          0.8690    -1.3920     8.2630 h4         1 9WD       0.043100
     63 H23         -3.0320    -3.1370     5.1220 h1         1 9WD       0.060367
     64 H24         -2.8520    -1.3770     5.1150 h1         1 9WD       0.060367
     65 H25         -1.7860    -2.3790     4.1200 h1         1 9WD       0.060367
     66 H26          1.2780     0.4250     7.2580 hc         1 9WD       0.060700
     67 H27         -0.2000     1.9540    10.3120 h1         1 9WD       0.055950
     68 H28          1.2980     1.2890     9.6340 h1         1 9WD       0.055950
     69 H29          2.3090     2.7160     7.5390 h1         1 9WD       0.055950
     70 H30          1.3510     4.1430     7.1000 h1         1 9WD       0.055950
     71 H31          0.2060     5.7540     7.9210 hc         1 9WD       0.060700
     72 H32          1.8320     5.5830     8.5980 hc         1 9WD       0.060700
     73 H33          0.5520     6.3430     9.5530 hc         1 9WD       0.060700
     74 C31          0.3590     4.2490     9.4200 c          1 9WD       0.664100
     75 O01          2.0610     0.0000    -1.1840 os         1 9WD      -0.442100
@<TRIPOS>BOND
     1    39    74 1
     2    40    74 2
     3    74    37 1
     4    37    36 1
     5    37    38 1
     6    36    13 1
     7    38    14 1
     8    25    24 1
     9    26     7 ar
    10    26     3 ar
    11     7     6 ar
    12    13    35 1
    13    28     8 2
    14    28    27 1
    15    14    35 1
    16     8     9 1
    17    35    10 1
    18     2     3 1
    19     2     1 1
    20     3     4 ar
    21     6    27 1
    22     6     5 ar
    23    27    29 1
    24    34    33 1
    25    24     1 ar
    26    24    23 ar
    27     9    29 2
    28     4     5 ar
    29     1    16 ar
    30    22    23 ar
    31    22    21 ar
    32    33    11 1
    33    33    12 1
    34    23    18 ar
    35    10    11 1
    36    10    21 1
    37    10    30 1
    38    11    31 2
    39    12    32 2
    40    21    20 ar
    41    16    75 1
    42    16    17 ar
    43    31    32 1
    44    18    17 ar
    45    18    19 ar
    46    75    15 1
    47    20    19 ar
    48     2    41 1
    49     2    42 1
    50     4    43 1
    51     5    44 1
    52     7    45 1
    53     8    46 1
    54     9    47 1
    55    12    48 1
    56    13    49 1
    57    13    50 1
    58    14    51 1
    59    14    52 1
    60    15    53 1
    61    15    54 1
    62    15    55 1
    63    19    56 1
    64    20    57 1
    65    22    58 1
    66    26    59 1
    67    28    60 1
    68    30    61 1
    69    31    62 1
    70    34    63 1
    71    34    64 1
    72    34    65 1
    73    35    66 1
    74    36    67 1
    75    36    68 1
    76    38    69 1
    77    38    70 1
    78    39    71 1
    79    39    72 1
    80    39    73 1
@<TRIPOS>SUBSTRUCTURE
     1 9WD         1 TEMP              0 ****  ****    0 ROOT
