@<TRIPOS>MOLECULE
9WE
   43    45     1     0     0
SMALL
bcc


@<TRIPOS>ATOM
      1 C10          0.0000     0.0000     0.0000 ca         1 9WE       0.421200
      2 C13          3.0430    -3.1430    -5.6740 c3         1 9WE      -0.043400
      3 C17          4.6790    -4.5450    -4.4120 c3         1 9WE      -0.043400
      4 C20         -0.4220    -7.2830    -5.3780 ca         1 9WE       0.470200
      5 C21          0.0050    -8.6010    -5.3220 ca         1 9WE      -0.386600
      6 C22          1.3670    -8.8560    -5.2980 ca         1 9WE       0.470200
      7 O01          3.4620    -0.7030    -3.5450 o          1 9WE      -0.705100
      8 C02          3.0630    -1.6280    -2.8640 c          1 9WE       0.581100
      9 N03          2.3930    -1.3810    -1.7210 ns         1 9WE      -0.224900
     10 C04          2.1440     0.0000    -1.3000 c3         1 9WE       0.136300
     11 C05          1.3820     0.0000     0.0000 ca         1 9WE      -0.247600
     12 C06          2.0580     0.0000     1.2110 ca         1 9WE      -0.052000
     13 C07          1.3150     0.0010     2.3810 ca         1 9WE      -0.224300
     14 C08         -0.0640     0.0010     2.3030 ca         1 9WE       0.411200
     15 N09         -0.6740     0.0010     1.1340 nb         1 9WE      -0.583000
     16 N11          3.2900    -2.8980    -3.2520 ns         1 9WE      -0.224900
     17 C12          4.0190    -3.1650    -4.4940 c3         1 9WE       0.034700
     18 C14          2.0080    -4.2550    -5.4950 c3         1 9WE       0.139300
     19 N15          2.6880    -5.5540    -5.4240 nh         1 9WE      -0.439300
     20 C16          3.5950    -5.6160    -4.2700 c3         1 9WE       0.139300
     21 C18          1.7740    -6.5920    -5.3930 ca         1 9WE       0.702900
     22 N19          0.4780    -6.3150    -5.4120 nb         1 9WE      -0.659000
     23 N23          2.2150    -7.8400    -5.3290 nb         1 9WE      -0.659000
     24 H30         -0.5360    -0.0000    -0.9420 h4         1 9WE      -0.013900
     25 H34          3.5890    -3.3040    -6.5960 hc         1 9WE       0.034450
     26 H33          2.5410    -2.1840    -5.7080 hc         1 9WE       0.034450
     27 H40          5.3360    -4.5800    -3.5520 hc         1 9WE       0.034450
     28 H39          5.2480    -4.7260    -5.3160 hc         1 9WE       0.034450
     29 H41         -1.4790    -7.0490    -5.3960 h4         1 9WE      -0.015900
     30 H42         -0.7110    -9.4140    -5.2960 ha         1 9WE       0.125000
     31 H43          1.7330    -9.8740    -5.2500 h4         1 9WE      -0.015900
     32 H24          2.0730    -2.1420    -1.1550 hn         1 9WE       0.169500
     33 H25          3.0900     0.5110    -1.1640 h1         1 9WE       0.029700
     34 H26          1.5640     0.5100    -2.0590 h1         1 9WE       0.029700
     35 H27          3.1410    -0.0000     1.2410 ha         1 9WE       0.114000
     36 H28          1.8100     0.0010     3.3440 ha         1 9WE       0.115000
     37 H29         -0.6520     0.0020     3.2130 h4         1 9WE      -0.019900
     38 H31          3.0080    -3.6580    -2.6640 hn         1 9WE       0.172500
     39 H32          4.7810    -2.4100    -4.6420 h1         1 9WE       0.059700
     40 H35          1.4560    -4.0870    -4.5780 h1         1 9WE       0.025700
     41 H36          1.3270    -4.2510    -6.3380 h1         1 9WE       0.025700
     42 H38          4.0590    -6.5940    -4.2300 h1         1 9WE       0.025700
     43 H37          3.0320    -5.4410    -3.3610 h1         1 9WE       0.025700
@<TRIPOS>BOND
     1     1    11 ar  
     2     1    15 ar  
     3     1    24 1   
     4     2    17 1   
     5     2    18 1   
     6     2    25 1   
     7     2    26 1   
     8     3    17 1   
     9     3    20 1   
    10     3    27 1   
    11     3    28 1   
    12     4     5 ar  
    13     4    22 ar  
    14     4    29 1   
    15     5     6 ar  
    16     5    30 1   
    17     6    23 ar  
    18     6    31 1   
    19     7     8 2   
    20     8     9 1   
    21     8    16 1   
    22     9    10 1   
    23     9    32 1   
    24    10    11 1   
    25    10    33 1   
    26    10    34 1   
    27    11    12 ar  
    28    12    13 ar  
    29    12    35 1   
    30    13    14 ar  
    31    13    36 1   
    32    14    15 ar  
    33    14    37 1   
    34    16    17 1   
    35    16    38 1   
    36    17    39 1   
    37    18    19 1   
    38    18    40 1   
    39    18    41 1   
    40    19    20 1   
    41    19    21 1   
    42    20    42 1   
    43    20    43 1   
    44    21    22 ar  
    45    21    23 ar  
@<TRIPOS>SUBSTRUCTURE
     1 9WE         1 TEMP              0 ****  ****    0 ROOT
