@<TRIPOS>MOLECULE
molecule
   43    45     1     0     0
SMALL
bcc


@<TRIPOS>ATOM
      1 C10          0.0000     0.0000     0.0000 ca         1 9WE       0.435200
      2 C13          3.0430    -3.1430    -5.6740 c3         1 9WE      -0.097400
      3 C17          4.6790    -4.5450    -4.4120 c3         1 9WE      -0.097400
      4 C20         -0.4220    -7.2830    -5.3780 ca         1 9WE       0.481200
      5 C21          0.0050    -8.6010    -5.3220 ca         1 9WE      -0.419600
      6 C22          1.3670    -8.8560    -5.2980 ca         1 9WE       0.481200
      7 O01          3.4620    -0.7030    -3.5450 o          1 9WE      -0.660100
      8 C02          3.0630    -1.6280    -2.8640 c          1 9WE       0.781100
      9 N03          2.3930    -1.3810    -1.7210 ns         1 9WE      -0.605900
     10 C04          2.1440     0.0000    -1.3000 c3         1 9WE       0.183300
     11 C05          1.3820     0.0000     0.0000 ca         1 9WE      -0.245600
     12 C06          2.0580     0.0000     1.2110 ca         1 9WE      -0.078000
     13 C07          1.3150     0.0010     2.3810 ca         1 9WE      -0.258300
     14 C08         -0.0640     0.0010     2.3030 ca         1 9WE       0.426200
     15 N09         -0.6740     0.0010     1.1340 nb         1 9WE      -0.690000
     16 N11          3.2900    -2.8980    -3.2520 ns         1 9WE      -0.602900
     17 C12          4.0190    -3.1650    -4.4940 c3         1 9WE       0.129700
     18 C14          2.0080    -4.2550    -5.4950 c3         1 9WE       0.175300
     19 N15          2.6880    -5.5540    -5.4240 nh         1 9WE      -0.681300
     20 C16          3.5950    -5.6160    -4.2700 c3         1 9WE       0.175300
     21 C18          1.7740    -6.5920    -5.3930 ca         1 9WE       0.868900
     22 N19          0.4780    -6.3150    -5.4120 nb         1 9WE      -0.767000
     23 N23          2.2150    -7.8400    -5.3290 nb         1 9WE      -0.767000
     24 H30         -0.5360    -0.0000    -0.9420 h4         1 9WE       0.030100
     25 H34          3.5890    -3.3040    -6.5960 hc         1 9WE       0.064950
     26 H33          2.5410    -2.1840    -5.7080 hc         1 9WE       0.064950
     27 H40          5.3360    -4.5800    -3.5520 hc         1 9WE       0.064950
     28 H39          5.2480    -4.7260    -5.3160 hc         1 9WE       0.064950
     29 H41         -1.4790    -7.0490    -5.3960 h4         1 9WE       0.029600
     30 H42         -0.7110    -9.4140    -5.2960 ha         1 9WE       0.146000
     31 H43          1.7330    -9.8740    -5.2500 h4         1 9WE       0.029600
     32 H24          2.0730    -2.1420    -1.1550 hn         1 9WE       0.309500
     33 H25          3.0900     0.5110    -1.1640 h1         1 9WE       0.060700
     34 H26          1.5640     0.5100    -2.0590 h1         1 9WE       0.060700
     35 H27          3.1410    -0.0000     1.2410 ha         1 9WE       0.143000
     36 H28          1.8100     0.0010     3.3440 ha         1 9WE       0.141000
     37 H29         -0.6520     0.0020     3.2130 h4         1 9WE       0.025100
     38 H31          3.0080    -3.6580    -2.6640 hn         1 9WE       0.307500
     39 H32          4.7810    -2.4100    -4.6420 h1         1 9WE       0.083700
     40 H35          1.4560    -4.0870    -4.5780 h1         1 9WE       0.052450
     41 H36          1.3270    -4.2510    -6.3380 h1         1 9WE       0.052450
     42 H38          4.0590    -6.5940    -4.2300 h1         1 9WE       0.052450
     43 H37          3.0320    -5.4410    -3.3610 h1         1 9WE       0.052450
@<TRIPOS>BOND
     1     7     8 2
     2    20    19 1
     3    20     3 1
     4    18    19 1
     5    18     2 1
     6    19    21 1
     7    17     3 1
     8    17     2 1
     9    17    16 1
    10     8    16 1
    11     8     9 1
    12    21    23 ar
    13    21    22 ar
    14    23     6 ar
    15    10     9 1
    16    10    11 1
    17    22     4 ar
    18     6     5 ar
    19     4     5 ar
    20    11    12 ar
    21    11     1 ar
    22    12    13 ar
    23    13    14 ar
    24     1    15 ar
    25    14    15 ar
    26     1    24 1
    27     2    25 1
    28     2    26 1
    29     3    27 1
    30     3    28 1
    31     4    29 1
    32     5    30 1
    33     6    31 1
    34     9    32 1
    35    10    33 1
    36    10    34 1
    37    12    35 1
    38    13    36 1
    39    14    37 1
    40    16    38 1
    41    17    39 1
    42    18    40 1
    43    18    41 1
    44    20    42 1
    45    20    43 1
@<TRIPOS>SUBSTRUCTURE
     1 9WE         1 TEMP              0 ****  ****    0 ROOT
