@<TRIPOS>MOLECULE
molecule
   39    42     1     0     0
SMALL
bcc


@<TRIPOS>ATOM
      1 C4           0.0000     0.0000     0.0000 cc         1 9WG      -0.270300
      2 N2           1.7780     0.0000     1.2810 na         1 9WG       0.074400
      3 C7          -1.8280     0.0110     1.8310 ca         1 9WG      -0.121500
      4 C9          -3.5110    -0.7760     3.3530 ca         1 9WG      -0.174000
      5 C20         -1.9090    -2.3990    -0.8260 c          1 9WG       0.717100
      6 C8          -2.2020    -0.7830     2.9140 ca         1 9WG      -0.075000
      7 C18         -2.5060    -1.0530    -2.6290 ca         1 9WG       0.426600
      8 C16         -1.7470     1.0610    -3.1560 ca         1 9WG       0.446200
      9 C19         -1.6970    -1.1060    -1.4910 ca         1 9WG      -0.274900
     10 C1           3.1720    -0.0000     1.7320 c3         1 9WG       0.062600
     11 C3           1.3660     0.0000     0.0000 cd         1 9WG      -0.086300
     12 C5          -0.4240     0.0050     1.3540 cd         1 9WG       0.435800
     13 N6           0.6510     0.0030     2.1120 nc         1 9WG      -0.502800
     14 C10         -4.4510     0.0190     2.7200 ca         1 9WG       0.134900
     15 C11         -4.0860     0.8030     1.6370 ca         1 9WG      -0.174000
     16 C12         -2.7800     0.8050     1.1940 ca         1 9WG      -0.075000
     17 F13         -5.7310     0.0250     3.1530 f          1 9WG      -0.143900
     18 C14         -0.8760     0.0020    -1.1920 ca         1 9WG       0.111000
     19 C15         -0.9160     1.0990    -2.0570 ca         1 9WG      -0.266300
     20 N17         -2.5030     0.0060    -3.4070 nb         1 9WG      -0.691000
     21 N22         -2.8080    -3.1320    -1.5070 n          1 9WG      -0.500800
     22 C23         -3.2520    -2.3640    -2.6760 c3         1 9WG       0.052700
     23 C24         -3.2670    -4.4740    -1.1420 c3         1 9WG       0.130300
     24 HC9         -3.8020    -1.3890     4.1970 ha         1 9WG       0.145000
     25 HC8         -1.4670    -1.4050     3.4100 ha         1 9WG       0.147000
     26 HC16        -1.7800     1.9100    -3.8280 h4         1 9WG       0.028100
     27 HC1C         3.6870     0.8560     1.3140 h1         1 9WG       0.056700
     28 HC1A         3.6580    -0.9110     1.4020 h1         1 9WG       0.056700
     29 HC1B         3.2020     0.0530     2.8140 h1         1 9WG       0.056700
     30 HC3          2.0040    -0.0030    -0.8750 h4         1 9WG       0.173000
     31 HC11        -4.8250     1.4220     1.1430 ha         1 9WG       0.145000
     32 HC12        -2.4950     1.4210     0.3500 ha         1 9WG       0.147000
     33 HC15        -0.3030     1.9710    -1.8650 ha         1 9WG       0.148000
     34 H23A        -4.3190    -2.1850    -2.6190 h1         1 9WG       0.069700
     35 H23B        -3.0060    -2.8980    -3.5860 h1         1 9WG       0.069700
     36 H24A        -3.9880    -4.8200    -1.8720 h1         1 9WG       0.045033
     37 H24B        -3.7300    -4.4430    -0.1630 h1         1 9WG       0.045033
     38 H24C        -2.4220    -5.1510    -1.1210 h1         1 9WG       0.045033
     39 O21         -1.3550    -2.7530     0.1970 o          1 9WG      -0.614500
@<TRIPOS>BOND
     1    10     2 1
     2    13     2 1
     3    13    12 2
     4    16    15 ar
     5    16     3 ar
     6    15    14 ar
     7     2    11 1
     8    12     3 1
     9    12     1 1
    10     3     6 ar
    11    14    17 1
    12    14     4 ar
    13    11     1 2
    14     1    18 1
    15     6     4 ar
    16    18    19 ar
    17    18     9 ar
    18    19     8 ar
    19    39     5 2
    20     9     5 1
    21     9     7 ar
    22     8    20 ar
    23     5    21 1
    24     7    20 ar
    25     7    22 1
    26    21    22 1
    27    21    23 1
    28     4    24 1
    29     6    25 1
    30     8    26 1
    31    10    27 1
    32    10    28 1
    33    10    29 1
    34    11    30 1
    35    15    31 1
    36    16    32 1
    37    19    33 1
    38    22    34 1
    39    22    35 1
    40    23    36 1
    41    23    37 1
    42    23    38 1
@<TRIPOS>SUBSTRUCTURE
     1 9WG         1 TEMP              0 ****  ****    0 ROOT
