@<TRIPOS>MOLECULE
9WG
   39    42     1     0     0
SMALL
bcc


@<TRIPOS>ATOM
      1 C4           0.0000     0.0000     0.0000 cc         1 9WG      -0.271300
      2 N2           1.7780     0.0000     1.2810 na         1 9WG       0.503400
      3 C7          -1.8280     0.0110     1.8310 ca         1 9WG      -0.116500
      4 C9          -3.5110    -0.7760     3.3530 ca         1 9WG      -0.140000
      5 C20         -1.9090    -2.3990    -0.8260 c          1 9WG       0.658100
      6 C8          -2.2020    -0.7830     2.9140 ca         1 9WG      -0.053500
      7 C18         -2.5060    -1.0530    -2.6290 ca         1 9WG       0.372600
      8 C16         -1.7470     1.0610    -3.1560 ca         1 9WG       0.423200
      9 C19         -1.6970    -1.1060    -1.4910 ca         1 9WG      -0.284900
     10 C1           3.1720    -0.0000     1.7320 c3         1 9WG       0.021600
     11 C3           1.3660     0.0000     0.0000 cd         1 9WG      -0.230300
     12 C5          -0.4240     0.0050     1.3540 cc         1 9WG       0.469800
     13 N6           0.6510     0.0030     2.1120 nd         1 9WG      -0.643800
     14 C10         -4.4510     0.0190     2.7200 ca         1 9WG       0.101900
     15 C11         -4.0860     0.8030     1.6370 ca         1 9WG      -0.140000
     16 C12         -2.7800     0.8050     1.1940 ca         1 9WG      -0.053500
     17 F13         -5.7310     0.0250     3.1530 f          1 9WG      -0.132900
     18 C14         -0.8760     0.0020    -1.1920 ca         1 9WG       0.136000
     19 C15         -0.9160     1.0990    -2.0570 ca         1 9WG      -0.241300
     20 N17         -2.5030     0.0060    -3.4070 nb         1 9WG      -0.563000
     21 N22         -2.8080    -3.1320    -1.5070 n          1 9WG      -0.170800
     22 C23         -3.2520    -2.3640    -2.6760 c3         1 9WG       0.014700
     23 C24         -3.2670    -4.4740    -1.1420 c3         1 9WG       0.126300
     24 HC9         -3.8020    -1.3890     4.1970 ha         1 9WG       0.117500
     25 HC8         -1.4670    -1.4050     3.4100 ha         1 9WG       0.117500
     26 HC16        -1.7800     1.9100    -3.8280 h4         1 9WG      -0.018900
     27 HC1C         3.6870     0.8560     1.3140 h1         1 9WG       0.022367
     28 HC1A         3.6580    -0.9110     1.4020 h1         1 9WG       0.022367
     29 HC1B         3.2020     0.0530     2.8140 h1         1 9WG       0.022367
     30 HC3          2.0040    -0.0030    -0.8750 h4         1 9WG       0.146000
     31 HC11        -4.8250     1.4220     1.1430 ha         1 9WG       0.117500
     32 HC12        -2.4950     1.4210     0.3500 ha         1 9WG       0.117500
     33 HC15        -0.3030     1.9710    -1.8650 ha         1 9WG       0.122000
     34 H23A        -4.3190    -2.1850    -2.6190 h1         1 9WG       0.031700
     35 H23B        -3.0060    -2.8980    -3.5860 h1         1 9WG       0.031700
     36 H24A        -3.9880    -4.8200    -1.8720 h1         1 9WG       0.009367
     37 H24B        -3.7300    -4.4430    -0.1630 h1         1 9WG       0.009367
     38 H24C        -2.4220    -5.1510    -1.1210 h1         1 9WG       0.009367
     39 O21         -1.3550    -2.7530     0.1970 o          1 9WG      -0.662500
@<TRIPOS>BOND
     1     1    11 2   
     2     1    12 1   
     3     1    18 1   
     4     2    10 1   
     5     2    11 1   
     6     2    13 1   
     7     3     6 ar  
     8     3    12 1   
     9     3    16 ar  
    10     4     6 ar  
    11     4    14 ar  
    12     4    24 1   
    13     5     9 1   
    14     5    21 1   
    15     5    39 2   
    16     6    25 1   
    17     7     9 ar  
    18     7    20 ar  
    19     7    22 1   
    20     8    19 ar  
    21     8    20 ar  
    22     8    26 1   
    23     9    18 ar  
    24    10    27 1   
    25    10    28 1   
    26    10    29 1   
    27    11    30 1   
    28    12    13 2   
    29    14    15 ar  
    30    14    17 1   
    31    15    16 ar  
    32    15    31 1   
    33    16    32 1   
    34    18    19 ar  
    35    19    33 1   
    36    21    22 1   
    37    21    23 1   
    38    22    34 1   
    39    22    35 1   
    40    23    36 1   
    41    23    37 1   
    42    23    38 1   
@<TRIPOS>SUBSTRUCTURE
     1 9WG         1 TEMP              0 ****  ****    0 ROOT
