@<TRIPOS>MOLECULE
molecule
   44    47     1     0     0
SMALL
bcc


@<TRIPOS>ATOM
      1 N12          0.0000     0.0000     0.0000 nu         1 9WH      -0.814600
      2 C13          1.4000     0.0000     0.0000 cc         1 9WH       0.575200
      3 C15          3.5110    -0.0010     0.7150 cd         1 9WH      -0.099300
      4 C21          5.0630    -3.4770    -2.9630 ca         1 9WH      -0.170000
      5 C22          4.4540    -3.3230    -4.1940 ca         1 9WH      -0.085000
      6 C24          3.9910    -1.0290    -3.6810 ca         1 9WH       0.083400
      7 C02         -3.6830     3.3960     5.4740 cd         1 9WH       0.344600
      8 C03         -4.6460     3.3930     4.4620 cd         1 9WH      -0.359300
      9 C04         -4.6250     2.1670     3.8710 cc         1 9WH       0.167300
     10 N05         -5.4310     1.7500     2.8150 nv         1 9WH      -0.958200
     11 N06         -3.6790     1.4290     4.4930 na         1 9WH       0.045400
     12 C08         -2.2230     0.0340     3.1430 cd         1 9WH       0.366700
     13 N09         -0.9510     0.0370     3.3800 nc         1 9WH      -0.263000
     14 N10         -0.1660     0.0260     2.3930 nc         1 9WH      -0.406000
     15 C11         -0.6930     0.0130     1.2020 cd         1 9WH       0.712300
     16 C14          2.2260     0.0000     1.1350 cc         1 9WH      -0.343300
     17 N16          3.5060    -0.0060    -0.6350 na         1 9WH       0.069400
     18 C18          4.6070    -1.1790    -2.4510 ca         1 9WH      -0.149300
     19 C19          5.1370    -2.4060    -2.0890 ca         1 9WH       0.160900
     20 F20          5.7280    -2.5570    -0.8830 f          1 9WH      -0.133900
     21 C23          3.9180    -2.1010    -4.5540 ca         1 9WH      -0.142000
     22 N26          2.1710    -0.0070    -1.0630 nd         1 9WH      -0.550800
     23 S27         -2.4470     0.0080     1.3930 ss         1 9WH      -0.360800
     24 N28         -3.1000     2.2250     5.4900 nc         1 9WH      -0.497800
     25 H37         -0.5010    -0.0200    -0.8660 hn         1 9WH       0.473800
     26 H39          4.3890    -0.0020     1.3490 h4         1 9WH       0.174000
     27 H40          4.7260     0.9100    -2.0660 h1         1 9WH       0.076700
     28 H41          5.5790    -0.1030    -0.8940 h1         1 9WH       0.076700
     29 H42          5.4800    -4.4360    -2.6810 ha         1 9WH       0.151000
     30 H43          4.3960    -4.1620    -4.8770 ha         1 9WH       0.144000
     31 H31         -2.5740     4.2660     7.0700 hc         1 9WH       0.049367
     32 H30         -4.2480     4.8240     6.9490 hc         1 9WH       0.049367
     33 H29         -3.0390     5.4000     5.7940 hc         1 9WH       0.049367
     34 H32         -5.2480     4.2390     4.1530 ha         1 9WH       0.157000
     35 H34         -6.1790     1.1060     2.9810 hn         1 9WH       0.436300
     36 H33         -5.2910     2.1270     1.8990 hn         1 9WH       0.436300
     37 H35         -2.9720    -0.4520     5.0760 h1         1 9WH       0.084700
     38 H36         -4.1870    -0.4750     3.7900 h1         1 9WH       0.084700
     39 H38          1.8930     0.0040     2.1660 ha         1 9WH       0.201000
     40 H44          3.4390    -1.9830    -5.5180 ha         1 9WH       0.150000
     41 C17          4.6870    -0.0130    -1.5010 c3         1 9WH       0.130600
     42 C07         -3.3190     0.0450     4.1770 c3         1 9WH       0.073000
     43 Cl1          3.3240     0.5080    -4.1360 cl         1 9WH      -0.081400
     44 C01         -3.3630     4.5530     6.3860 c3         1 9WH      -0.110400
@<TRIPOS>BOND
     1    44     7 1
     2    24     7 2
     3    24    11 1
     4     7     8 1
     5    13    14 1
     6    13    12 2
     7    42    11 1
     8    42    12 1
     9    11     9 1
    10    14    15 2
    11    12    23 1
    12     8     9 2
    13     9    10 1
    14    15    23 1
    15    15     1 1
    16     1     2 1
    17     2    22 2
    18     2    16 1
    19    22    17 1
    20    16     3 2
    21    21     5 ar
    22    21     6 ar
    23     5     4 ar
    24    43     6 1
    25     6    18 ar
    26     4    19 ar
    27    17     3 1
    28    17    41 1
    29    18    19 ar
    30    18    41 1
    31    19    20 1
    32     1    25 1
    33     3    26 1
    34    41    27 1
    35    41    28 1
    36     4    29 1
    37     5    30 1
    38    44    31 1
    39    44    32 1
    40    44    33 1
    41     8    34 1
    42    10    35 1
    43    10    36 1
    44    42    37 1
    45    42    38 1
    46    16    39 1
    47    21    40 1
@<TRIPOS>SUBSTRUCTURE
     1 9WH         1 TEMP              0 ****  ****    0 ROOT
