@<TRIPOS>MOLECULE
9WH
   44    47     1     0     0
SMALL
bcc


@<TRIPOS>ATOM
      1 N12          0.0000     0.0000     0.0000 nu         1 9WH      -0.284600
      2 C13          1.4000     0.0000     0.0000 cc         1 9WH       0.425200
      3 C15          3.5110    -0.0010     0.7150 cd         1 9WH      -0.230300
      4 C21          5.0630    -3.4770    -2.9630 ca         1 9WH      -0.134000
      5 C22          4.4540    -3.3230    -4.1940 ca         1 9WH      -0.053000
      6 C24          3.9910    -1.0290    -3.6810 ca         1 9WH       0.015400
      7 C02         -3.6830     3.3960     5.4740 cc         1 9WH       0.366600
      8 C03         -4.6460     3.3930     4.4620 cc         1 9WH      -0.345300
      9 C04         -4.6250     2.1670     3.8710 cd         1 9WH      -0.121700
     10 N05         -5.4310     1.7500     2.8150 nv         1 9WH      -0.503200
     11 N06         -3.6790     1.4290     4.4930 na         1 9WH       0.464400
     12 C08         -2.2230     0.0340     3.1430 cc         1 9WH       0.331700
     13 N09         -0.9510     0.0370     3.3800 nd         1 9WH      -0.190000
     14 N10         -0.1660     0.0260     2.3930 nd         1 9WH      -0.391000
     15 C11         -0.6930     0.0130     1.2020 cc         1 9WH       0.543300
     16 C14          2.2260     0.0000     1.1350 cc         1 9WH      -0.328300
     17 N16          3.5060    -0.0060    -0.6350 na         1 9WH       0.500400
     18 C18          4.6070    -1.1790    -2.4510 ca         1 9WH      -0.154300
     19 C19          5.1370    -2.4060    -2.0890 ca         1 9WH       0.132900
     20 F20          5.7280    -2.5570    -0.8830 f          1 9WH      -0.124900
     21 C23          3.9180    -2.1010    -4.5540 ca         1 9WH      -0.114000
     22 N26          2.1710    -0.0070    -1.0630 nd         1 9WH      -0.685800
     23 S27         -2.4470     0.0080     1.3930 ss         1 9WH      -0.430800
     24 N28         -3.1000     2.2250     5.4900 nd         1 9WH      -0.631800
     25 H37         -0.5010    -0.0200    -0.8660 hn         1 9WH       0.290800
     26 H39          4.3890    -0.0020     1.3490 h4         1 9WH       0.149000
     27 H40          4.7260     0.9100    -2.0660 h1         1 9WH       0.044200
     28 H41          5.5790    -0.1030    -0.8940 h1         1 9WH       0.044200
     29 H42          5.4800    -4.4360    -2.6810 ha         1 9WH       0.123000
     30 H43          4.3960    -4.1620    -4.8770 ha         1 9WH       0.110000
     31 H31         -2.5740     4.2660     7.0700 hc         1 9WH       0.009367
     32 H30         -4.2480     4.8240     6.9490 hc         1 9WH       0.009367
     33 H29         -3.0390     5.4000     5.7940 hc         1 9WH       0.009367
     34 H32         -5.2480     4.2390     4.1530 ha         1 9WH       0.137000
     35 H34         -6.1790     1.1060     2.9810 hn         1 9WH       0.273800
     36 H33         -5.2910     2.1270     1.8990 hn         1 9WH       0.273800
     37 H35         -2.9720    -0.4520     5.0760 h1         1 9WH       0.046200
     38 H36         -4.1870    -0.4750     3.7900 h1         1 9WH       0.046200
     39 H38          1.8930     0.0040     2.1660 ha         1 9WH       0.187000
     40 H44          3.4390    -1.9830    -5.5180 ha         1 9WH       0.120000
     41 C17          4.6870    -0.0130    -1.5010 c3         1 9WH       0.050600
     42 C07         -3.3190     0.0450     4.1770 c3         1 9WH       0.009000
     43 Cl1          3.3240     0.5080    -4.1360 cl         1 9WH       0.009600
     44 C01         -3.3630     4.5530     6.3860 c3         1 9WH      -0.002400
@<TRIPOS>BOND
     1     1     2 1   
     2     1    15 1   
     3     1    25 1   
     4     2    16 1   
     5     2    22 2   
     6     3    16 2   
     7     3    17 1   
     8     3    26 1   
     9     4     5 ar  
    10     4    19 ar  
    11     4    29 1   
    12     5    21 ar  
    13     5    30 1   
    14     6    18 ar  
    15     6    21 ar  
    16     6    43 1   
    17     7     8 1   
    18     7    24 2   
    19     7    44 1   
    20     8     9 2   
    21     8    34 1   
    22     9    10 1   
    23     9    11 1   
    24    10    35 1   
    25    10    36 1   
    26    11    24 1   
    27    11    42 1   
    28    12    13 2   
    29    12    23 1   
    30    12    42 1   
    31    13    14 1   
    32    14    15 2   
    33    15    23 1   
    34    16    39 1   
    35    17    22 1   
    36    17    41 1   
    37    18    19 ar  
    38    18    41 1   
    39    19    20 1   
    40    21    40 1   
    41    27    41 1   
    42    28    41 1   
    43    31    44 1   
    44    32    44 1   
    45    33    44 1   
    46    37    42 1   
    47    38    42 1   
@<TRIPOS>SUBSTRUCTURE
     1 9WH         1 TEMP              0 ****  ****    0 ROOT
