@<TRIPOS>MOLECULE
molecule
   29    29     1     0     0
SMALL
bcc


@<TRIPOS>ATOM
      1 O3           0.0000     0.0000     0.0000 oh         1 9WJ      -0.579800
      2 C3           1.4290     0.0000     0.0000 c3         1 9WJ       0.125100
      3 C4           1.9410     0.0000     1.4440 c3         1 9WJ       0.087700
      4 O7           1.6290     0.2670     4.1080 o          1 9WJ      -0.602100
      5 C8           0.9780     2.5340     4.1460 c3         1 9WJ      -0.172100
      6 C5           3.4700    -0.0790     1.4350 c3         1 9WJ       0.144100
      7 O5           3.8810    -1.2530     0.7310 os         1 9WJ      -0.418600
      8 C1           3.4700    -1.2860    -0.6380 c3         1 9WJ       0.337900
      9 C2           1.9420    -1.2550    -0.7120 c3         1 9WJ       0.112100
     10 O2           1.4090    -2.4170    -0.0740 oh         1 9WJ      -0.560800
     11 N4           1.5180     1.2320     2.1140 ns         1 9WJ      -0.580900
     12 O1           3.9530    -2.4830    -1.2520 oh         1 9WJ      -0.573800
     13 H1          -0.3140     0.5580    -0.6920 ho         1 9WJ       0.397000
     14 H2           1.7960     0.8810    -0.5130 h1         1 9WJ       0.027700
     15 H3           1.5390    -0.8590     1.9680 h1         1 9WJ       0.127700
     16 H4           1.6310     3.3410     3.8360 hc         1 9WJ       0.060367
     17 H5          -0.0440     2.7750     3.8790 hc         1 9WJ       0.060367
     18 H6           1.0500     2.4030     5.2190 hc         1 9WJ       0.060367
     19 H10          3.8720     0.7960     0.9390 h1         1 9WJ       0.020700
     20 H11          3.8720    -0.4230    -1.1540 h2         1 9WJ       0.015700
     21 H12          1.6320    -1.2320    -1.7500 h1         1 9WJ       0.041700
     22 H13          0.9780    -2.9590    -0.7140 ho         1 9WJ       0.408000
     23 H14          1.2910     2.0430     1.5730 hn         1 9WJ       0.307500
     24 H15          4.7970    -2.3190    -1.6390 ho         1 9WJ       0.409000
     25 C6           3.9860    -0.1410     2.8730 c3         1 9WJ      -0.080100
     26 H7           5.0340    -0.4170     2.8690 hc         1 9WJ       0.055367
     27 C7           1.3910     1.2600     3.4550 c          1 9WJ       0.659100
     28 H8           3.8710     0.8300     3.3400 hc         1 9WJ       0.055367
     29 H9           3.4200    -0.8780     3.4290 hc         1 9WJ       0.055367
@<TRIPOS>BOND
     1     5    27 1
     2    25     6 1
     3    27    11 1
     4    27     4 2
     5    11     3 1
     6     6     3 1
     7     6     7 1
     8     3     2 1
     9     7     8 1
    10     8     9 1
    11     2     9 1
    12     2     1 1
    13     9    10 1
    14     8    12 1
    15     1    13 1
    16     2    14 1
    17     3    15 1
    18     5    16 1
    19     5    17 1
    20     5    18 1
    21    25    26 1
    22    25    28 1
    23    25    29 1
    24     6    19 1
    25     8    20 1
    26     9    21 1
    27    10    22 1
    28    11    23 1
    29    12    24 1
@<TRIPOS>SUBSTRUCTURE
     1 9WJ         1 TEMP              0 ****  ****    0 ROOT
