@<TRIPOS>MOLECULE
9WK
   44    46     1     0     0
SMALL
bcc


@<TRIPOS>ATOM
      1 C10          0.0000     0.0000     0.0000 ca         1 9WK      -0.060500
      2 C13          1.3920    -0.0100     2.4000 ca         1 9WK      -0.088500
      3 C17         -4.3060     0.0170     2.3960 c3         1 9WK       0.109300
      4 C20         -5.7060    -1.1590     5.6990 ca         1 9WK      -0.134000
      5 C21         -5.7210     0.0190     6.4280 ca         1 9WK       0.124900
      6 C24         -4.8260     1.1960     4.5430 ca         1 9WK      -0.005600
      7 C02          4.7580     3.3310     0.4430 cc         1 9WK       0.396600
      8 C03          4.7710     3.3490     1.8410 cc         1 9WK      -0.408300
      9 C04          4.3420     2.1310     2.2760 cd         1 9WK      -0.094700
     10 N05          4.2070     1.7330     3.6030 nv         1 9WK      -0.443200
     11 N06          4.0710     1.3800     1.1840 na         1 9WK       0.447400
     12 C07          3.5810    -0.0010     1.1890 c3         1 9WK       0.057600
     13 C08          2.0750     0.0000     1.1960 ca         1 9WK      -0.108300
     14 C09          1.3790     0.0000     0.0000 ca         1 9WK      -0.088500
     15 C11         -0.6950     0.0020     1.2110 ca         1 9WK      -0.146600
     16 C12          0.0120    -0.0040     2.4130 ca         1 9WK      -0.060500
     17 C14         -2.1730     0.0090     1.2180 c          1 9WK       0.595700
     18 O15         -2.7860     0.0140     0.1680 o          1 9WK      -0.645100
     19 N16         -2.8410     0.0100     2.3880 ns         1 9WK      -0.200900
     20 C18         -4.8010     0.0170     3.8200 ca         1 9WK      -0.136300
     21 C19         -5.2470    -1.1580     4.3960 ca         1 9WK      -0.047000
     22 C23         -5.2810     1.1970     5.8490 ca         1 9WK      -0.134000
     23 Cl2         -4.2740     2.6720     3.8150 cl         1 9WK       0.002600
     24 N26          4.3350     2.1580     0.0490 nd         1 9WK      -0.665800
     25 H1          -0.5430     0.0020    -0.9380 ha         1 9WK       0.116500
     26 H2           1.9420    -0.0140     3.3330 ha         1 9WK       0.112000
     27 H3          -4.6740    -0.8640     1.8850 h1         1 9WK       0.037200
     28 H4          -4.6650     0.9050     1.8890 h1         1 9WK       0.037200
     29 H5          -6.0550    -2.0800     6.1500 ha         1 9WK       0.124000
     30 H6           6.1780     4.7640    -0.2380 hc         1 9WK       0.009033
     31 H7           5.0860     4.1590    -1.4910 hc         1 9WK       0.009033
     32 H8           4.4980     5.3140    -0.2870 hc         1 9WK       0.009033
     33 H9           4.9880     4.2080     2.4640 ha         1 9WK       0.139000
     34 H10          4.1900     0.7600     3.8330 hn         1 9WK       0.269800
     35 H11          4.1730     2.4200     4.3300 hn         1 9WK       0.269800
     36 H12          3.9380    -0.5130     0.3030 h1         1 9WK       0.034700
     37 H13          3.9470    -0.5100     2.0720 h1         1 9WK       0.034700
     38 H14          1.9190     0.0030    -0.9390 ha         1 9WK       0.112000
     39 H15         -0.5210    -0.0070     3.3560 ha         1 9WK       0.116500
     40 H16         -2.3370    -0.0460     3.2510 hn         1 9WK       0.182500
     41 H17         -5.2350    -2.0790     3.8260 ha         1 9WK       0.116000
     42 H18         -5.2970     2.1190     6.4170 ha         1 9WK       0.133000
     43 F22         -6.1650     0.0180     7.7050 f          1 9WK      -0.123900
     44 C01          5.1580     4.4720    -0.4560 c3         1 9WK      -0.004400
@<TRIPOS>BOND
     1     1    14 ar  
     2     1    15 ar  
     3     1    25 1   
     4     2    13 ar  
     5     2    16 ar  
     6     2    26 1   
     7     3    19 1   
     8     3    20 1   
     9     3    27 1   
    10     3    28 1   
    11     4     5 ar  
    12     4    21 ar  
    13     4    29 1   
    14     5    22 ar  
    15     5    43 1   
    16     6    20 ar  
    17     6    22 ar  
    18     6    23 1   
    19     7     8 1   
    20     7    24 2   
    21     7    44 1   
    22     8     9 2   
    23     8    33 1   
    24     9    10 1   
    25     9    11 1   
    26    10    34 1   
    27    10    35 1   
    28    11    12 1   
    29    11    24 1   
    30    12    13 1   
    31    12    36 1   
    32    12    37 1   
    33    13    14 ar  
    34    14    38 1   
    35    15    16 ar  
    36    15    17 1   
    37    16    39 1   
    38    17    18 2   
    39    17    19 1   
    40    19    40 1   
    41    20    21 ar  
    42    21    41 1   
    43    22    42 1   
    44    30    44 1   
    45    31    44 1   
    46    32    44 1   
@<TRIPOS>SUBSTRUCTURE
     1 9WK         1 TEMP              0 ****  ****    0 ROOT
