@<TRIPOS>MOLECULE
molecule
   33    33     1     0     0
SMALL
bcc


@<TRIPOS>ATOM
      1 C10          0.0000     0.0000     0.0000 c3         1 9WN       0.165400
      2 C01          2.0520     4.1550     1.9340 c3         1 9WN       0.149400
      3 C02          2.1670     2.6600     2.2380 c3         1 9WN       0.147100
      4 C03          2.6520     2.4670     3.6770 c3         1 9WN       0.111100
      5 C04          2.8220     0.9700     3.9530 c3         1 9WN       0.119100
      6 C05          3.7950     0.3800     2.9280 c3         1 9WN       0.127100
      7 C06          3.2660     0.6530     1.5180 c3         1 9WN       0.322900
      8 C09          1.5300     0.0000     0.0000 c3         1 9WN       0.031100
      9 C12          2.0330    -1.2290    -0.7110 c          1 9WN       0.882600
     10 O07          3.1010     2.0610     1.3370 os         1 9WN      -0.436600
     11 O08          2.0070     0.0000     1.3470 os         1 9WN      -0.404600
     12 O11         -0.4760    -1.2220     0.5690 oh         1 9WN      -0.579800
     13 O13          1.7940    -1.3920    -2.0220 o          1 9WN      -0.837300
     14 O14          2.6520    -2.0690    -0.1010 o          1 9WN      -0.837300
     15 O15          3.9060    -1.0310     3.1320 oh         1 9WN      -0.557800
     16 O16          3.3450     0.7840     5.2710 oh         1 9WN      -0.622800
     17 O17          1.6910     3.0140     4.5820 oh         1 9WN      -0.612800
     18 O18          1.4900     4.3350     0.6320 oh         1 9WN      -0.589800
     19 H1          -0.3610     0.8360     0.5870 h1         1 9WN       0.012200
     20 H2          -0.3610     0.0900    -1.0170 h1         1 9WN       0.012200
     21 H3           3.0350     4.6070     1.9680 h1         1 9WN       0.021200
     22 H4           1.4130     4.6250     2.6710 h1         1 9WN       0.021200
     23 H6           3.6040     2.9680     3.8070 h1         1 9WN       0.037700
     24 H7           1.8620     0.4760     3.8660 h1         1 9WN       0.088700
     25 H8           4.7670     0.8450     3.0450 h1         1 9WN       0.036700
     26 H9           3.9750     0.2780     0.7900 h2         1 9WN       0.104700
     27 H10          1.8910     0.8850    -0.5100 h1         1 9WN       0.049700
     28 H11         -1.4170    -1.2460     0.5200 ho         1 9WN       0.367000
     29 H13          4.8140    -1.2650     3.2320 ho         1 9WN       0.392000
     30 H14          2.7430     0.2600     5.7730 ho         1 9WN       0.407000
     31 H15          2.1040     3.5410     5.2450 ho         1 9WN       0.400000
     32 H16          1.3710     5.2560     0.4660 ho         1 9WN       0.388000
     33 H5           1.2000     2.1870     2.1190 h1         1 9WN       0.084700
@<TRIPOS>BOND
     1    14     9 1
     2     1    12 1
     3     1     8 1
     4     9     8 1
     5     9    13 1
     6     8    11 1
     7    11     7 1
     8     2     3 1
     9     2    18 1
    10    10     3 1
    11    10     7 1
    12     3     4 1
    13     7     6 1
    14    17     4 1
    15     4     5 1
    16     5     6 1
    17     5    16 1
    18     6    15 1
    19     1    19 1
    20     1    20 1
    21     2    21 1
    22     2    22 1
    23     3    33 1
    24     4    23 1
    25     5    24 1
    26     6    25 1
    27     7    26 1
    28     8    27 1
    29    12    28 1
    30    15    29 1
    31    16    30 1
    32    17    31 1
    33    18    32 1
@<TRIPOS>SUBSTRUCTURE
     1 9WN         1 TEMP              0 ****  ****    0 ROOT
