@<TRIPOS>MOLECULE
molecule
   29    31     1     0     0
SMALL
bcc


@<TRIPOS>ATOM
      1 C1           0.0000     0.0000     0.0000 cc         1 9WS      -0.426800
      2 C2           1.4090     0.0000     0.0000 cd         1 9WS       0.039700
      3 C3          -0.8730    -0.0060    -1.1770 c          1 9WS       0.722300
      4 C12         -4.2430     0.8060    -2.0630 ca         1 9WS      -0.006600
      5 C13          3.6880    -0.0020    -0.7050 cc         1 9WS      -0.098000
      6 C14          4.0700     0.0000     0.6440 cc         1 9WS      -0.181000
      7 C16         -2.6710    -0.4860    -3.3440 ca         1 9WS      -0.120000
      8 C17         -5.0590     0.9080    -3.1730 ca         1 9WS      -0.107000
      9 C18         -3.4940    -0.3850    -4.4480 ca         1 9WS      -0.112000
     10 C19         -4.6850     0.3130    -4.3650 ca         1 9WS      -0.139000
     11 N4           1.8050     0.0000     1.3070 na         1 9WS       0.208000
     12 N5           0.6560     0.0010     2.1060 nd         1 9WS      -0.572100
     13 C6          -0.4070     0.0010     1.3450 cc         1 9WS       0.438500
     14 N7          -2.2120    -0.0100    -1.0230 ns         1 9WS      -0.474100
     15 C8          -3.0420     0.1100    -2.1460 ca         1 9WS       0.070600
     16 C9           2.3620    -0.0010    -1.0260 cd         1 9WS      -0.115000
     17 C10          3.1320     0.0000     1.6180 cd         1 9WS      -0.028300
     18 O11         -0.3890    -0.0060    -2.2940 o          1 9WS      -0.621100
     19 H1           4.4390    -0.0020    -1.4860 ha         1 9WS       0.148000
     20 H2           5.1210    -0.0000     0.9070 ha         1 9WS       0.156000
     21 H3          -1.7370    -1.0310    -3.4120 ha         1 9WS       0.174000
     22 H4          -5.9940     1.4520    -3.1100 ha         1 9WS       0.144000
     23 H5          -3.2040    -0.8500    -5.3830 ha         1 9WS       0.137000
     24 H6          -5.3270     0.3920    -5.2330 ha         1 9WS       0.135000
     25 H7          -1.4330     0.0010     1.6940 h4         1 9WS       0.060800
     26 H8          -2.6100    -0.1110    -0.1100 hn         1 9WS       0.330500
     27 H9           2.0490    -0.0030    -2.0640 ha         1 9WS       0.182000
     28 H10          3.4380     0.0020     2.6570 h4         1 9WS       0.175000
     29 Cl15        -4.7120     1.5530    -0.5670 cl         1 9WS      -0.117400
@<TRIPOS>BOND
     1    10     8 ar
     2    10     9 ar
     3     5    16 2
     4     5     6 1
     5     8     4 ar
     6    16     2 1
     7    18     3 2
     8     9     7 ar
     9     4    29 1
    10     4    15 ar
    11     7    15 ar
    12     6    17 2
    13    15    14 1
    14     3    14 1
    15     3     1 1
    16     2     1 2
    17     2    11 1
    18     1    13 1
    19    17    11 1
    20    11    12 1
    21    13    12 2
    22     5    19 1
    23     6    20 1
    24     7    21 1
    25     8    22 1
    26     9    23 1
    27    10    24 1
    28    13    25 1
    29    14    26 1
    30    16    27 1
    31    17    28 1
@<TRIPOS>SUBSTRUCTURE
     1 9WS         1 TEMP              0 ****  ****    0 ROOT
