@<TRIPOS>MOLECULE
9WS
   29    31     1     0     0
SMALL
bcc


@<TRIPOS>ATOM
      1 C1           0.0000     0.0000     0.0000 cc         1 9WS      -0.455800
      2 C2           1.4090     0.0000     0.0000 cd         1 9WS      -0.143300
      3 C3          -0.8730    -0.0060    -1.1770 c          1 9WS       0.644300
      4 C12         -4.2430     0.8060    -2.0630 ca         1 9WS      -0.066600
      5 C13          3.6880    -0.0020    -0.7050 cc         1 9WS      -0.098000
      6 C14          4.0700     0.0000     0.6440 cc         1 9WS      -0.109000
      7 C16         -2.6710    -0.4860    -3.3440 ca         1 9WS      -0.099000
      8 C17         -5.0590     0.9080    -3.1730 ca         1 9WS      -0.083000
      9 C18         -3.4940    -0.3850    -4.4480 ca         1 9WS      -0.082000
     10 C19         -4.6850     0.3130    -4.3650 ca         1 9WS      -0.108000
     11 N4           1.8050     0.0000     1.3070 na         1 9WS       0.730000
     12 N5           0.6560     0.0010     2.1060 nd         1 9WS      -0.751100
     13 C6          -0.4070     0.0010     1.3450 cc         1 9WS       0.513500
     14 N7          -2.2120    -0.0100    -1.0230 ns         1 9WS      -0.038100
     15 C8          -3.0420     0.1100    -2.1460 ca         1 9WS      -0.077400
     16 C9           2.3620    -0.0010    -1.0260 cd         1 9WS      -0.054000
     17 C10          3.1320     0.0000     1.6180 cd         1 9WS      -0.218300
     18 O11         -0.3890    -0.0060    -2.2940 o          1 9WS      -0.664100
     19 H1           4.4390    -0.0020    -1.4860 ha         1 9WS       0.118000
     20 H2           5.1210    -0.0000     0.9070 ha         1 9WS       0.121000
     21 H3          -1.7370    -1.0310    -3.4120 ha         1 9WS       0.151000
     22 H4          -5.9940     1.4520    -3.1100 ha         1 9WS       0.113000
     23 H5          -3.2040    -0.8500    -5.3830 ha         1 9WS       0.105000
     24 H6          -5.3270     0.3920    -5.2330 ha         1 9WS       0.105000
     25 H7          -1.4330     0.0010     1.6940 h4         1 9WS       0.009800
     26 H8          -2.6100    -0.1110    -0.1100 hn         1 9WS       0.174500
     27 H9           2.0490    -0.0030    -2.0640 ha         1 9WS       0.151000
     28 H10          3.4380     0.0020     2.6570 h4         1 9WS       0.145000
     29 Cl15        -4.7120     1.5530    -0.5670 cl         1 9WS      -0.033400
@<TRIPOS>BOND
     1     1     2 2   
     2     1     3 1   
     3     1    13 1   
     4     2    11 1   
     5     2    16 1   
     6     3    14 1   
     7     3    18 2   
     8     4     8 ar  
     9     4    15 ar  
    10     4    29 1   
    11     5     6 1   
    12     5    16 2   
    13     5    19 1   
    14     6    17 2   
    15     6    20 1   
    16     7     9 ar  
    17     7    15 ar  
    18     7    21 1   
    19     8    10 ar  
    20     8    22 1   
    21     9    10 ar  
    22     9    23 1   
    23    10    24 1   
    24    11    12 1   
    25    11    17 1   
    26    12    13 2   
    27    13    25 1   
    28    14    15 1   
    29    14    26 1   
    30    16    27 1   
    31    17    28 1   
@<TRIPOS>SUBSTRUCTURE
     1 9WS         1 TEMP              0 ****  ****    0 ROOT
