@<TRIPOS>MOLECULE
molecule
   56    59     1     0     0
SMALL
bcc


@<TRIPOS>ATOM
      1 S01          0.0000     0.0000     0.0000 ss         1 9WT      -0.318200
      2 S02         -2.8880     0.8300     4.8600 ss         1 9WT      -0.274300
      3 O03          3.8710     2.0650     1.3400 o          1 9WT      -0.505500
      4 O04          2.0560     4.3890    -2.3910 o          1 9WT      -0.774800
      5 O05          3.4670     3.8550    -0.7630 o          1 9WT      -0.774800
      6 O06          2.9960    -0.8340     3.8820 o          1 9WT      -0.572100
      7 O07          2.5480    -1.2970     6.2130 os         1 9WT      -0.143300
      8 N08          0.4590     2.9010    -3.9710 n4         1 9WT      -0.538800
      9 N09          2.2350     1.4190    -0.1760 nj         1 9WT      -0.399000
     10 N10          1.5370     0.0930     2.4890 ns         1 9WT      -0.551900
     11 N11          1.2580    -0.7520     6.0030 n2         1 9WT      -0.399200
     12 N12         -0.9530     0.3250     3.3390 nc         1 9WT      -0.701000
     13 N13         -2.8440     1.0130     2.0670 nv         1 9WT      -1.024500
     14 C14          0.0770     4.0180    -4.8610 c3         1 9WT       0.109800
     15 C15         -0.2240     1.6790    -4.4340 c3         1 9WT       0.109800
     16 C16          0.0490     3.2050    -2.5940 c3         1 9WT       0.121000
     17 C17         -0.3370     3.3410    -6.1920 c3         1 9WT      -0.104900
     18 C18         -1.0460     2.0580    -5.6830 c3         1 9WT      -0.104900
     19 C19          1.9120     2.7020    -4.0240 c3         1 9WT       0.097100
     20 C20          0.5470     2.1220    -1.6710 c2         1 9WT      -0.311400
     21 C21          1.8240     0.0000     0.0000 cy         1 9WT       0.141800
     22 C22          2.4780     0.0000     1.3700 cy         1 9WT       0.049700
     23 C23          1.7170     2.3480    -1.0890 ce         1 9WT       0.101400
     24 C24         -0.3380     0.9280    -1.5280 c3         1 9WT       0.061900
     25 C25          3.0160     1.3290     0.8950 c          1 9WT       0.694500
     26 C26          2.4710     3.5760    -1.4000 c          1 9WT       0.867800
     27 C27          1.8820    -0.3860     3.7000 c          1 9WT       0.562800
     28 C28          0.9010    -0.3670     4.8110 cf         1 9WT       0.306300
     29 C29         -0.4850     0.0900     4.5660 cd         1 9WT       0.337000
     30 C30         -1.3640     0.2980     5.5660 cc         1 9WT      -0.120400
     31 C31         -2.1840     0.7210     3.2490 cd         1 9WT       0.741300
     32 C32          2.8060    -1.6750     7.5670 c3         1 9WT       0.125700
     33 H2           0.6600     0.5600     2.3660 hn         1 9WT       0.373500
     34 H3          -3.2370     0.2750     1.5180 hn         1 9WT       0.446300
     35 H4          -2.9480     1.9640     1.7750 hn         1 9WT       0.446300
     36 H5           0.9220     4.6770    -5.0220 hx         1 9WT       0.097700
     37 H6          -0.7600     4.5640    -4.4420 hx         1 9WT       0.097700
     38 H7           0.5090     0.9240    -4.6910 hx         1 9WT       0.097700
     39 H8          -0.8840     1.3100    -3.6570 hx         1 9WT       0.097700
     40 H9          -1.0320     3.2560    -2.5410 hx         1 9WT       0.127700
     41 H10          0.4700     4.1570    -2.2930 hx         1 9WT       0.127700
     42 H11          0.5350     3.0900    -6.7840 hc         1 9WT       0.072950
     43 H12         -1.0250     3.9680    -6.7460 hc         1 9WT       0.072950
     44 H13         -0.9930     1.2730    -6.4270 hc         1 9WT       0.072950
     45 H14         -2.0730     2.2720    -5.4130 hc         1 9WT       0.072950
     46 H15          2.2320     2.1380    -3.1560 hx         1 9WT       0.096700
     47 H16          2.1700     2.1570    -4.9240 hx         1 9WT       0.096700
     48 H17          2.4090     3.6650    -4.0310 hx         1 9WT       0.096700
     49 H19          2.2840    -0.6720    -0.7140 h2         1 9WT       0.095700
     50 H20          3.2460    -0.7570     1.4760 h1         1 9WT       0.126700
     51 H22         -1.3410     1.3210    -1.4130 h1         1 9WT       0.074700
     52 H23         -0.0640     0.2630    -2.3380 h1         1 9WT       0.074700
     53 H24         -1.1670     0.1610     6.6220 h4         1 9WT       0.198000
     54 H25          3.0060    -2.7390     7.6130 h1         1 9WT       0.043367
     55 H26          1.9410    -1.4440     8.1770 h1         1 9WT       0.043367
     56 H27          3.6650    -1.1290     7.9370 h1         1 9WT       0.043367
@<TRIPOS>BOND
     1     6    27 2
     2     3    25 2
     3    19     8 1
     4     2    30 1
     5     2    31 1
     6    18    17 1
     7    18    15 1
     8    30    29 2
     9    13    31 1
    10    31    12 2
    11    25     9 1
    12    25    22 1
    13    27    28 1
    14    27    10 1
    15    29    12 1
    16    29    28 1
    17    17    14 1
    18    15     8 1
    19    23     9 1
    20    23    20 2
    21    23    26 1
    22     8    14 1
    23     8    16 1
    24    28    11 2
    25     9    21 1
    26    20    24 1
    27    20    16 1
    28    26     5 1
    29    26     4 1
    30    24     1 1
    31    22    10 1
    32    22    21 1
    33    11     7 1
    34     1    21 1
    35     7    32 1
    36    10    33 1
    37    13    34 1
    38    13    35 1
    39    14    36 1
    40    14    37 1
    41    15    38 1
    42    15    39 1
    43    16    40 1
    44    16    41 1
    45    17    42 1
    46    17    43 1
    47    18    44 1
    48    18    45 1
    49    19    46 1
    50    19    47 1
    51    19    48 1
    52    21    49 1
    53    22    50 1
    54    24    51 1
    55    24    52 1
    56    30    53 1
    57    32    54 1
    58    32    55 1
    59    32    56 1
@<TRIPOS>SUBSTRUCTURE
     1 9WT         1 TEMP              0 ****  ****    0 ROOT
