@<TRIPOS>MOLECULE
9WT
   56    59     1     0     0
SMALL
bcc


@<TRIPOS>ATOM
      1 S01          0.0000     0.0000     0.0000 ss         1 9WT      -0.390200
      2 S02         -2.8880     0.8300     4.8600 ss         1 9WT      -0.378300
      3 O03          3.8710     2.0650     1.3400 o          1 9WT      -0.530500
      4 O04          2.0560     4.3890    -2.3910 o          1 9WT      -0.813800
      5 O05          3.4670     3.8550    -0.7630 o          1 9WT      -0.813800
      6 O06          2.9960    -0.8340     3.8820 o          1 9WT      -0.625100
      7 O07          2.5480    -1.2970     6.2130 os         1 9WT      -0.133300
      8 N08          0.4590     2.9010    -3.9710 n4         1 9WT       0.117200
      9 N09          2.2350     1.4190    -0.1760 nj         1 9WT      -0.029000
     10 N10          1.5370     0.0930     2.4890 ns         1 9WT      -0.194900
     11 N11          1.2580    -0.7520     6.0030 n2         1 9WT      -0.341200
     12 N12         -0.9530     0.3250     3.3390 nc         1 9WT      -0.556000
     13 N13         -2.8440     1.0130     2.0670 nv         1 9WT      -0.556500
     14 C14          0.0770     4.0180    -4.8610 c3         1 9WT      -0.027200
     15 C15         -0.2240     1.6790    -4.4340 c3         1 9WT      -0.027200
     16 C16          0.0490     3.2050    -2.5940 c3         1 9WT      -0.055000
     17 C17         -0.3370     3.3410    -6.1920 c3         1 9WT      -0.030400
     18 C18         -1.0460     2.0580    -5.6830 c3         1 9WT      -0.030400
     19 C19          1.9120     2.7020    -4.0240 c3         1 9WT      -0.057900
     20 C20          0.5470     2.1220    -1.6710 c2         1 9WT      -0.318400
     21 C21          1.8240     0.0000     0.0000 cy         1 9WT       0.076800
     22 C22          2.4780     0.0000     1.3700 cy         1 9WT      -0.038300
     23 C23          1.7170     2.3480    -1.0890 ce         1 9WT      -0.022600
     24 C24         -0.3380     0.9280    -1.5280 c3         1 9WT       0.153900
     25 C25          3.0160     1.3290     0.8950 c          1 9WT       0.609500
     26 C26          2.4710     3.5760    -1.4000 c          1 9WT       0.960800
     27 C27          1.8820    -0.3860     3.7000 c          1 9WT       0.491800
     28 C28          0.9010    -0.3670     4.8110 ce         1 9WT       0.255300
     29 C29         -0.4850     0.0900     4.5660 cc         1 9WT       0.283000
     30 C30         -1.3640     0.2980     5.5660 cd         1 9WT      -0.045400
     31 C31         -2.1840     0.7210     3.2490 cd         1 9WT       0.572300
     32 C32          2.8060    -1.6750     7.5670 c3         1 9WT       0.249700
     33 H2           0.6530     0.5440     2.3620 hn         1 9WT       0.247500
     34 H3          -2.9630     1.9650     1.7840 hn         1 9WT       0.277800
     35 H4          -3.2520     0.2760     1.5270 hn         1 9WT       0.277800
     36 H5          -0.7600     4.5640    -4.4420 hx         1 9WT       0.079450
     37 H6           0.9220     4.6770    -5.0220 hx         1 9WT       0.079450
     38 H7          -0.8840     1.3100    -3.6570 hx         1 9WT       0.079450
     39 H8           0.5090     0.9240    -4.6910 hx         1 9WT       0.079450
     40 H9          -1.0320     3.2560    -2.5410 hx         1 9WT       0.124200
     41 H10          0.4700     4.1570    -2.2930 hx         1 9WT       0.124200
     42 H11         -1.0250     3.9680    -6.7460 hc         1 9WT       0.040700
     43 H12          0.5350     3.0900    -6.7840 hc         1 9WT       0.040700
     44 H13         -2.0730     2.2720    -5.4130 hc         1 9WT       0.040700
     45 H14         -0.9940     1.2730    -6.4270 hc         1 9WT       0.040700
     46 H15          2.2320     2.1380    -3.1560 hx         1 9WT       0.088700
     47 H16          2.1700     2.1560    -4.9240 hx         1 9WT       0.088700
     48 H17          2.4090     3.6650    -4.0310 hx         1 9WT       0.088700
     49 H19          2.2840    -0.6720    -0.7140 h2         1 9WT       0.071700
     50 H20          3.2460    -0.7570     1.4760 h1         1 9WT       0.094700
     51 H22         -1.3410     1.3210    -1.4130 h1         1 9WT       0.057700
     52 H23         -0.0640     0.2630    -2.3380 h1         1 9WT       0.057700
     53 H24         -1.1670     0.1610     6.6220 h4         1 9WT       0.172000
     54 H25          3.8670    -1.5960     7.7690 h1         1 9WT      -0.002633
     55 H26          2.2610    -1.0180     8.2350 h1         1 9WT      -0.002633
     56 H27          2.4830    -2.6970     7.7240 h1         1 9WT      -0.002633
@<TRIPOS>BOND
     1     1    21 1   
     2     1    24 1   
     3     2    30 1   
     4     2    31 1   
     5     3    25 2   
     6     4    26 1   
     7     5    26 1   
     8     6    27 2   
     9     7    11 1   
    10     7    32 1   
    11     8    14 1   
    12     8    15 1   
    13     8    16 1   
    14     8    19 1   
    15     9    21 1   
    16     9    23 1   
    17     9    25 1   
    18    10    22 1   
    19    10    27 1   
    20    10    33 1   
    21    11    28 2   
    22    12    29 1   
    23    12    31 2   
    24    13    31 1   
    25    13    34 1   
    26    13    35 1   
    27    14    17 1   
    28    14    36 1   
    29    14    37 1   
    30    15    18 1   
    31    15    38 1   
    32    15    39 1   
    33    16    20 1   
    34    16    40 1   
    35    16    41 1   
    36    17    18 1   
    37    17    42 1   
    38    17    43 1   
    39    18    44 1   
    40    18    45 1   
    41    19    46 1   
    42    19    47 1   
    43    19    48 1   
    44    20    23 2   
    45    20    24 1   
    46    21    22 1   
    47    21    49 1   
    48    22    25 1   
    49    22    50 1   
    50    23    26 1   
    51    24    51 1   
    52    24    52 1   
    53    27    28 1   
    54    28    29 1   
    55    29    30 2   
    56    30    53 1   
    57    32    54 1   
    58    32    55 1   
    59    32    56 1   
@<TRIPOS>SUBSTRUCTURE
     1 9WT         1 TEMP              0 ****  ****    0 ROOT
