@<TRIPOS>MOLECULE
molecule
   50    52     1     0     0
SMALL
bcc


@<TRIPOS>ATOM
      1 C10          0.0000     0.0000     0.0000 cc         1 9WY       0.082400
      2 C7           3.3440    -0.0010     3.6550 ca         1 9WY      -0.136300
      3 O3P          4.8340    -0.1970    -5.2990 o          1 9WY      -0.891167
      4 P            4.6400    -0.6420    -3.7640 p5         1 9WY       1.142900
      5 O1P          3.5070    -1.5890    -3.6640 o          1 9WY      -0.891167
      6 O2P          5.9840    -1.3570    -3.2390 o          1 9WY      -0.891167
      7 C5'          4.3840     2.8770    -4.6490 c3         1 9WY       0.130400
      8 C4'          3.5430     2.8820    -3.3700 c3         1 9WY       0.122100
      9 O4'          2.3610     3.6570    -3.5790 oh         1 9WY      -0.600800
     10 C3'          3.1550     1.4470    -3.0100 c3         1 9WY       0.229100
     11 O3'          4.3370     0.6560    -2.8630 os         1 9WY      -0.580200
     12 C2'          2.3720     1.4450    -1.6950 c3         1 9WY       0.116100
     13 O2'          1.1260     2.1190    -1.8820 oh         1 9WY      -0.577800
     14 C1'          2.1120     0.0020    -1.2600 c3         1 9WY       0.017300
     15 N10          1.3620     0.0000     0.0000 na         1 9WY      -0.045100
     16 C9A          2.0200     0.0000     1.2120 ca         1 9WY      -0.003600
     17 C9           3.4120     0.0010     1.2520 ca         1 9WY      -0.156000
     18 C8           4.0640     0.0000     2.4640 ca         1 9WY      -0.018300
     19 C8M          5.5700     0.0010     2.5020 c3         1 9WY      -0.055800
     20 C7M          4.0810    -0.0000     4.9700 c3         1 9WY      -0.037800
     21 C6           1.9830    -0.0010     3.6470 ca         1 9WY      -0.115300
     22 C5A          1.2880    -0.0010     2.4210 ca         1 9WY       0.286600
     23 N5          -0.0520    -0.0010     2.4140 nd         1 9WY      -0.561000
     24 N1          -0.7060     0.0060    -1.1180 nd         1 9WY      -0.400400
     25 C4A         -0.7150    -0.0020     1.2860 cc         1 9WY       0.267800
     26 C4          -2.1940    -0.0020     1.2400 c          1 9WY       0.621000
     27 O4          -2.8590    -0.0020     2.2580 o          1 9WY      -0.624500
     28 N3          -2.7740    -0.0010     0.0180 ns         1 9WY      -0.597500
     29 C2          -2.0370     0.0100    -1.1010 c          1 9WY       0.849900
     30 O2          -2.6230     0.0110    -2.1700 o          1 9WY      -0.622500
     31 H3           3.8770     2.5960    -6.5190 ho         1 9WY       0.367000
     32 H4           4.5850     3.8980    -4.9530 h1         1 9WY       0.017700
     33 H5           5.3200     2.3640    -4.4650 h1         1 9WY       0.017700
     34 H6           4.1200     3.3140    -2.5610 h1         1 9WY       0.004700
     35 H7           2.5960     4.5640    -3.6930 ho         1 9WY       0.361000
     36 H8           2.5390     1.0310    -3.7980 h1         1 9WY       0.105700
     37 H9           3.0570    -0.5090    -1.1190 h1         1 9WY       0.140200
     38 H10          1.5360    -0.5080    -2.0230 h1         1 9WY       0.140200
     39 H11          3.9800     0.0010     0.3290 ha         1 9WY       0.202000
     40 H12          5.9570    -0.0510     1.4910 hc         1 9WY       0.052367
     41 H13          5.9190     0.9110     2.9750 hc         1 9WY       0.052367
     42 H14          5.9180    -0.8550     3.0660 hc         1 9WY       0.052367
     43 H15          3.3660     0.0160     5.7840 hc         1 9WY       0.035367
     44 H16          4.6910    -0.8920     5.0430 hc         1 9WY       0.035367
     45 H17          4.7150     0.8770     5.0290 hc         1 9WY       0.035367
     46 H18          1.4340    -0.0020     4.5810 ha         1 9WY       0.140000
     47 H20         -3.7720     0.0030    -0.0510 hn         1 9WY       0.332500
     48 H21          2.9470     1.9550    -0.9320 h1         1 9WY       0.002700
     49 H22          1.1310     2.9290    -1.4000 ho         1 9WY       0.373000
     50 O5'          3.6670     2.2040    -5.6870 oh         1 9WY      -0.526800
@<TRIPOS>BOND
     1    50     7 1
     2    30    29 2
     3     7     8 1
     4     9     8 1
     5    29    28 1
     6    29    24 1
     7    28    26 1
     8     8    10 1
     9    24     1 2
    10    26    27 2
    11    26    25 1
    12    10    11 1
    13    10    12 1
    14     5     4 1
    15     1    25 1
    16     1    15 1
    17    11     4 1
    18    25    23 2
    19    14    12 1
    20    14    15 1
    21    12    13 1
    22     4     3 1
    23     4     6 1
    24    15    16 1
    25    23    22 1
    26    16    22 ar
    27    16    17 ar
    28    22    21 ar
    29    17    18 ar
    30    21     2 ar
    31    18     2 ar
    32    18    19 1
    33     2    20 1
    34    50    31 1
    35     7    32 1
    36     7    33 1
    37     8    34 1
    38     9    35 1
    39    10    36 1
    40    14    37 1
    41    14    38 1
    42    17    39 1
    43    19    40 1
    44    19    41 1
    45    19    42 1
    46    20    43 1
    47    20    44 1
    48    20    45 1
    49    21    46 1
    50    28    47 1
    51    12    48 1
    52    13    49 1
@<TRIPOS>SUBSTRUCTURE
     1 9WY         1 TEMP              0 ****  ****    0 ROOT
