@<TRIPOS>MOLECULE
9WY
   50    52     1     0     0
SMALL
bcc


@<TRIPOS>ATOM
      1 C10          0.0000     0.0000     0.0000 cc         1 9WY      -0.108600
      2 C7           3.3440    -0.0010     3.6550 ca         1 9WY      -0.132300
      3 O3P          4.8340    -0.1970    -5.2990 o          1 9WY      -0.693833
      4 P            4.6400    -0.6420    -3.7640 p5         1 9WY       0.684900
      5 O1P          3.5070    -1.5890    -3.6640 o          1 9WY      -0.693833
      6 O2P          5.9840    -1.3570    -3.2390 o          1 9WY      -0.693833
      7 C5'          4.3840     2.8770    -4.6490 c3         1 9WY       0.195400
      8 C4'          3.5430     2.8820    -3.3700 c3         1 9WY       0.148100
      9 O4'          2.3610     3.6570    -3.5790 oh         1 9WY      -0.580800
     10 C3'          3.1550     1.4470    -3.0100 c3         1 9WY       0.242100
     11 O3'          4.3370     0.6560    -2.8630 os         1 9WY      -0.482200
     12 C2'          2.3720     1.4450    -1.6950 c3         1 9WY       0.154100
     13 O2'          1.1260     2.1190    -1.8820 oh         1 9WY      -0.560800
     14 C1'          2.1120     0.0020    -1.2600 c3         1 9WY      -0.105700
     15 N10          1.3620     0.0000     0.0000 na         1 9WY       0.427900
     16 C9A          2.0200     0.0000     1.2120 ca         1 9WY      -0.184600
     17 C9           3.4120     0.0010     1.2520 ca         1 9WY      -0.133000
     18 C8           4.0640     0.0000     2.4640 ca         1 9WY      -0.057300
     19 C8M          5.5700     0.0010     2.5020 c3         1 9WY       0.055200
     20 C7M          4.0810    -0.0000     4.9700 c3         1 9WY       0.070200
     21 C6           1.9830    -0.0010     3.6470 ca         1 9WY      -0.120300
     22 C5A          1.2880    -0.0010     2.4210 ca         1 9WY       0.252600
     23 N5          -0.0520    -0.0010     2.4140 nd         1 9WY      -0.442000
     24 N1          -0.7060     0.0060    -1.1180 nd         1 9WY      -0.347400
     25 C4A         -0.7150    -0.0020     1.2860 cc         1 9WY       0.170800
     26 C4          -2.1940    -0.0020     1.2400 c          1 9WY       0.538000
     27 O4          -2.8590    -0.0020     2.2580 o          1 9WY      -0.689500
     28 N3          -2.7740    -0.0010     0.0180 ns         1 9WY      -0.187500
     29 C2          -2.0370     0.0100    -1.1010 c          1 9WY       0.733900
     30 O2          -2.6230     0.0110    -2.1700 o          1 9WY      -0.690500
     31 H3           3.8770     2.5960    -6.5190 ho         1 9WY       0.343000
     32 H4           4.5850     3.8980    -4.9530 h1         1 9WY      -0.015800
     33 H5           5.3200     2.3640    -4.4650 h1         1 9WY      -0.015800
     34 H6           4.1200     3.3140    -2.5610 h1         1 9WY      -0.025300
     35 H7           2.5960     4.5640    -3.6930 ho         1 9WY       0.345000
     36 H8           2.5390     1.0310    -3.7980 h1         1 9WY       0.064700
     37 H9           3.0570    -0.5090    -1.1190 h1         1 9WY       0.110200
     38 H10          1.5360    -0.5080    -2.0230 h1         1 9WY       0.110200
     39 H11          3.9800     0.0010     0.3290 ha         1 9WY       0.175000
     40 H12          5.9570    -0.0510     1.4910 hc         1 9WY       0.010700
     41 H13          5.9190     0.9110     2.9750 hc         1 9WY       0.010700
     42 H14          5.9180    -0.8550     3.0660 hc         1 9WY       0.010700
     43 H15          3.3660     0.0160     5.7840 hc         1 9WY      -0.001300
     44 H16          4.6910    -0.8920     5.0430 hc         1 9WY      -0.001300
     45 H17          4.7150     0.8770     5.0290 hc         1 9WY      -0.001300
     46 H18          1.4340    -0.0020     4.5810 ha         1 9WY       0.108000
     47 H20         -3.7720     0.0030    -0.0510 hn         1 9WY       0.180500
     48 H21          2.9470     1.9550    -0.9320 h1         1 9WY      -0.026300
     49 H22          1.1310     2.9290    -1.4000 ho         1 9WY       0.357000
     50 O5'          3.6670     2.2040    -5.6870 oh         1 9WY      -0.506800
@<TRIPOS>BOND
     1     1    15 1   
     2     1    24 2   
     3     1    25 1   
     4     2    18 ar  
     5     2    20 1   
     6     2    21 ar  
     7     3     4 1   
     8     4     5 1   
     9     4     6 1   
    10     4    11 1   
    11     7     8 1   
    12     7    32 1   
    13     7    33 1   
    14     7    50 1   
    15     8     9 1   
    16     8    10 1   
    17     8    34 1   
    18     9    35 1   
    19    10    11 1   
    20    10    12 1   
    21    10    36 1   
    22    12    13 1   
    23    12    14 1   
    24    12    48 1   
    25    13    49 1   
    26    14    15 1   
    27    14    37 1   
    28    14    38 1   
    29    15    16 1   
    30    16    17 ar  
    31    16    22 ar  
    32    17    18 ar  
    33    17    39 1   
    34    18    19 1   
    35    19    40 1   
    36    19    41 1   
    37    19    42 1   
    38    20    43 1   
    39    20    44 1   
    40    20    45 1   
    41    21    22 ar  
    42    21    46 1   
    43    22    23 1   
    44    23    25 2   
    45    24    29 1   
    46    25    26 1   
    47    26    27 2   
    48    26    28 1   
    49    28    29 1   
    50    28    47 1   
    51    29    30 2   
    52    31    50 1   
@<TRIPOS>SUBSTRUCTURE
     1 9WY         1 TEMP              0 ****  ****    0 ROOT
