@<TRIPOS>MOLECULE
molecule
   42    43     1     0     0
SMALL
bcc


@<TRIPOS>ATOM
      1 C4           0.0000     0.0000     0.0000 c3         1 9WZ       0.072100
      2 C5           1.5500     0.0000     0.0000 c3         1 9WZ       0.132100
      3 C6           2.0880     1.2600    -0.6830 c3         1 9WZ       0.151400
      4 C3          -0.3240    -0.9130     1.2090 c3         1 9WZ       0.071100
      5 O6           3.5120     1.1810    -0.7730 oh         1 9WZ      -0.594800
      6 O4          -0.5100    -0.5590    -1.2120 oh         1 9WZ      -0.596800
      7 O3          -1.4250    -0.3860     1.9520 oh         1 9WZ      -0.573800
      8 O5           1.8870     0.0000     1.4040 os         1 9WZ      -0.344600
      9 C2           0.9620    -0.8850     2.0580 c3         1 9WZ       0.364600
     10 O2           0.6690    -0.4000     3.3690 os         1 9WZ      -0.272900
     11 C1           1.5600    -2.2920     2.1420 c3         1 9WZ       0.091400
     12 O1           2.8160    -2.2350     2.8200 oh         1 9WZ      -0.574800
     13 CAF         -1.3570    -1.5120     6.1890 ca         1 9WZ      -0.145000
     14 CAJ         -0.4590    -0.7730     5.4360 ca         1 9WZ       0.094100
     15 OAC          0.1810     0.2930     5.9900 oh         1 9WZ      -0.496100
     16 CAI         -0.2120    -1.1220     4.1120 ca         1 9WZ       0.161100
     17 CAD         -0.8650    -2.2090     3.5530 ca         1 9WZ      -0.199000
     18 CAE         -1.7600    -2.9430     4.3090 ca         1 9WZ      -0.110000
     19 CAK         -2.0050    -2.5940     5.6250 ca         1 9WZ      -0.107300
     20 CAH         -2.9770    -3.4010     6.4470 c3         1 9WZ      -0.029100
     21 CAG         -4.3810    -2.8100     6.3030 c3         1 9WZ       0.143400
     22 OAA         -5.3020    -3.5740     7.0820 oh         1 9WZ      -0.615800
     23 H1          -0.3830     1.0000     0.1630 h1         1 9WZ       0.070700
     24 H2           1.9290    -0.8940    -0.4810 h1         1 9WZ       0.077700
     25 H3           1.6670     1.3390    -1.6770 h1         1 9WZ       0.034200
     26 H4           1.8110     2.1310    -0.1020 h1         1 9WZ       0.034200
     27 H5          -0.5320    -1.9220     0.8740 h1         1 9WZ       0.065700
     28 H6           3.8330     1.8930    -1.3000 ho         1 9WZ       0.404000
     29 H7          -1.1510     0.0250    -1.5820 ho         1 9WZ       0.410000
     30 H8          -2.1730    -0.2960     1.3840 ho         1 9WZ       0.405000
     31 H9           1.7070    -2.6820     1.1420 h1         1 9WZ       0.040200
     32 H10          0.8840    -2.9400     2.6870 h1         1 9WZ       0.040200
     33 H11          3.2600    -3.0620     2.7280 ho         1 9WZ       0.402000
     34 H13          0.6490     0.0130     6.7590 ho         1 9WZ       0.416000
     35 H14         -0.6750    -2.4850     2.5220 ha         1 9WZ       0.139000
     36 H15         -2.2690    -3.7920     3.8710 ha         1 9WZ       0.130000
     37 H16         -2.6790    -3.3740     7.4880 hc         1 9WZ       0.058700
     38 H17         -2.9800    -4.4270     6.0990 hc         1 9WZ       0.058700
     39 H18         -4.3780    -1.7840     6.6510 h1         1 9WZ       0.023700
     40 H19         -4.6790    -2.8370     5.2620 h1         1 9WZ       0.023700
     41 H20         -6.1580    -3.1840     7.0290 ho         1 9WZ       0.403000
     42 H12         -1.5510    -1.2410     7.2200 ha         1 9WZ       0.141000
@<TRIPOS>BOND
     1     7     4 1
     2     4     1 1
     3     4     9 1
     4     6     1 1
     5    10     9 1
     6    10    16 1
     7    11     9 1
     8    11    12 1
     9     1     2 1
    10     9     8 1
    11    15    14 1
    12    16    14 ar
    13    16    17 ar
    14    14    13 ar
    15    21    22 1
    16    21    20 1
    17    17    18 ar
    18    13    19 ar
    19    18    19 ar
    20    19    20 1
    21     2     8 1
    22     2     3 1
    23     3     5 1
    24     1    23 1
    25     2    24 1
    26     3    25 1
    27     3    26 1
    28     4    27 1
    29     5    28 1
    30     6    29 1
    31     7    30 1
    32    11    31 1
    33    11    32 1
    34    12    33 1
    35    13    42 1
    36    15    34 1
    37    17    35 1
    38    18    36 1
    39    20    37 1
    40    20    38 1
    41    21    39 1
    42    21    40 1
    43    22    41 1
@<TRIPOS>SUBSTRUCTURE
     1 9WZ         1 TEMP              0 ****  ****    0 ROOT
