@<TRIPOS>MOLECULE
molecule
   90    97     1     0     0
SMALL
bcc


@<TRIPOS>ATOM
      1 C1           0.0000     0.0000     0.0000 ca         1 9X1       0.038800
      2 C2           1.3890     0.0000     0.0000 ca         1 9X1      -0.179750
      3 C3           2.0780     0.0000     1.1960 ca         1 9X1      -0.073500
      4 C4           1.3860     0.0020     2.3950 ca         1 9X1       0.002400
      5 C5           0.0030     0.0010     2.3990 ca         1 9X1      -0.073500
      6 C6          -0.6930     0.0010     1.2050 ca         1 9X1      -0.179750
      7 C22         -7.6750    -1.2690     2.0570 ca         1 9X1      -0.105500
      8 C24         -7.3630     1.1110     2.2700 ca         1 9X1      -0.105500
      9 C25         -6.9030     1.1620     0.9700 ca         1 9X1      -0.098750
     10 C26         -8.2470    -0.1680     4.2200 cp         1 9X1      -0.015500
     11 C27         -8.3240     0.9940     4.9850 ca         1 9X1      -0.105500
     12 N33         -8.5750    -0.7140     9.1390 na         1 9X1       0.050900
     13 C34         -8.3840    -1.9810     9.4270 ca         1 9X1       0.018200
     14 C35         -7.3590    -2.3950    10.2660 ca         1 9X1      -0.204000
     15 C36         -6.5050    -1.4560    10.8230 ca         1 9X1       0.333100
     16 C37         -6.7220    -0.0930    10.5040 ca         1 9X1      -0.094500
     17 Cl7          2.2550     0.0020     3.8980 cl         1 9X1      -0.074900
     18 N1          -0.7010     0.0050    -1.2090 nh         1 9X1      -0.319700
     19 C8           0.0310     0.0100    -2.4790 c3         1 9X1       0.054100
     20 C9          -2.0880     0.0060    -1.2080 cc         1 9X1       0.306200
     21 C10         -2.8020     1.1950    -1.2020 cd         1 9X1      -0.204000
     22 C11         -4.1900     1.1620    -1.2010 cc         1 9X1       0.042500
     23 C14         -2.8190    -1.2050    -1.2180 ca         1 9X1      -0.094500
     24 C15         -2.1710    -2.4480    -1.2300 ca         1 9X1      -0.058500
     25 C16         -2.9100    -3.5930    -1.2380 ca         1 9X1      -0.109500
     26 C17         -4.3010    -3.5440    -1.2370 ca         1 9X1      -0.036000
     27 C18         -4.9610    -2.3540    -1.2260 ca         1 9X1      -0.173500
     28 C13         -4.2330    -1.1520    -1.2160 ca         1 9X1       0.046000
     29 N12         -4.8570     0.0320    -1.2050 na         1 9X1      -0.175200
     30 C19         -6.3210     0.0670    -1.2020 c3         1 9X1       0.224600
     31 C20         -6.8240     0.0050     0.2170 ca         1 9X1      -0.146800
     32 C21         -7.2140    -1.2070     0.7570 ca         1 9X1      -0.098750
     33 C23         -7.7520    -0.1080     2.8230 cp         1 9X1      -0.015500
     34 C31         -8.6310    -1.3880     4.7730 ca         1 9X1      -0.105500
     35 C30         -9.0910    -1.4380     6.0740 ca         1 9X1      -0.098750
     36 C28         -8.7850     0.9310     6.2850 ca         1 9X1      -0.098750
     37 C29         -9.1710    -0.2810     6.8270 ca         1 9X1      -0.146800
     38 C38         -7.7860     0.2460     9.6370 ca         1 9X1       0.021700
     39 C39         -8.0040     1.5980     9.3190 ca         1 9X1      -0.173500
     40 C40         -7.1920     2.5550     9.8460 ca         1 9X1      -0.036000
     41 C41         -6.1450     2.2170    10.7000 ca         1 9X1      -0.109500
     42 C42         -5.9020     0.9160    11.0270 ca         1 9X1      -0.058500
     43 N43         -5.4720    -1.8380    11.6670 nh         1 9X1      -0.650900
     44 C44         -4.1520    -2.1520    11.1120 c3         1 9X1       0.231600
     45 C45         -5.6900    -1.9250    13.0450 ca         1 9X1       0.165600
     46 C46         -4.6570    -2.3080    13.8900 ca         1 9X1      -0.179750
     47 C47         -4.8750    -2.3920    15.2510 ca         1 9X1      -0.073500
     48 C48         -6.1230    -2.0960    15.7730 ca         1 9X1       0.002400
     49 Cl5         -6.3950    -2.2120    17.4830 cl         1 9X1      -0.074900
     50 C49         -7.1530    -1.7140    14.9320 ca         1 9X1      -0.073500
     51 C50         -6.9390    -1.6230    13.5720 ca         1 9X1      -0.179750
     52 H1           1.9310    -0.0010    -0.9380 ha         1 9X1       0.134750
     53 H2           3.1610     0.0000     1.1970 ha         1 9X1       0.158250
     54 H3          -0.5360     0.0020     3.3390 ha         1 9X1       0.158250
     55 H4          -1.7760     0.0010     1.2080 ha         1 9X1       0.134750
     56 H5          -7.9780    -2.2190     2.4800 ha         1 9X1       0.150000
     57 H6          -7.4220     2.0180     2.8600 ha         1 9X1       0.150000
     58 H7          -6.6000     2.1090     0.5400 ha         1 9X1       0.138250
     59 H8          -8.0210     1.9440     4.5620 ha         1 9X1       0.150000
     60 H9         -10.4630    -1.0820     8.3180 h1         1 9X1       0.102700
     61 H10        -10.0630     0.6270     8.5340 h1         1 9X1       0.102700
     62 H11         -9.0450    -2.7240     8.9970 h4         1 9X1       0.196000
     63 H12         -7.2260    -3.4480    10.4850 ha         1 9X1       0.200000
     64 H13          0.6880    -0.8500    -2.5210 h1         1 9X1       0.055533
     65 H14          0.6190     0.9170    -2.5540 h1         1 9X1       0.055533
     66 H15         -0.6730    -0.0320    -3.3010 h1         1 9X1       0.055533
     67 H16         -2.2800     2.1440    -1.1990 ha         1 9X1       0.200000
     68 H17         -4.7380     2.0960    -1.1970 h4         1 9X1       0.196000
     69 H18         -1.0890    -2.4980    -1.2310 ha         1 9X1       0.179500
     70 H19         -2.4090    -4.5530    -1.2470 ha         1 9X1       0.171500
     71 H20         -4.8670    -4.4680    -1.2440 ha         1 9X1       0.167000
     72 H21         -6.0440    -2.3330    -1.2260 ha         1 9X1       0.159500
     73 H22         -6.6610     0.9850    -1.6660 h1         1 9X1       0.102700
     74 H23         -6.7030    -0.7810    -1.7580 h1         1 9X1       0.102700
     75 H24         -7.1520    -2.1100     0.1620 ha         1 9X1       0.138250
     76 H25         -8.5710    -2.2950     4.1830 ha         1 9X1       0.150000
     77 H26         -9.3900    -2.3850     6.5060 ha         1 9X1       0.138250
     78 H27         -8.8450     1.8340     6.8810 ha         1 9X1       0.138250
     79 H28         -8.8140     1.8780     8.6560 ha         1 9X1       0.159500
     80 H29         -7.3660     3.5950     9.6010 ha         1 9X1       0.167000
     81 H30         -5.5140     2.9980    11.1070 ha         1 9X1       0.171500
     82 H31         -5.0850     0.6650    11.6920 ha         1 9X1       0.179500
     83 H32         -4.1610    -1.9850    10.0420 h1         1 9X1       0.055533
     84 H33         -3.4070    -1.5130    11.5710 h1         1 9X1       0.055533
     85 H34         -3.9130    -3.1890    11.3140 h1         1 9X1       0.055533
     86 H35         -3.6810    -2.5400    13.4820 ha         1 9X1       0.134750
     87 H36         -4.0690    -2.6910    15.9110 ha         1 9X1       0.158250
     88 H37         -8.1280    -1.4810    15.3440 ha         1 9X1       0.158250
     89 H38         -7.7470    -1.3240    12.9150 ha         1 9X1       0.134750
     90 C32         -9.6750    -0.3430     8.2460 c3         1 9X1       0.047100
@<TRIPOS>BOND
     1    49    48 1
     2    48    50 ar
     3    48    47 ar
     4    50    51 ar
     5    47    46 ar
     6    51    45 ar
     7    46    45 ar
     8    45    43 1
     9    43    15 1
    10    43    44 1
    11    15    14 ar
    12    15    16 ar
    13    14    13 ar
    14    42    16 ar
    15    42    41 ar
    16    16    38 ar
    17    13    12 1
    18    41    40 ar
    19    38    12 2
    20    38    39 ar
    21    12    90 1
    22    40    39 ar
    23    90    37 1
    24    37    35 ar
    25    37    36 ar
    26    35    34 ar
    27    36    11 ar
    28    34    10 ar
    29    11    10 ar
    30    10    33 1
    31    33     7 ar
    32    33     8 ar
    33     7    32 ar
    34     8     9 ar
    35    32    31 ar
    36     9    31 ar
    37    31    30 1
    38    30    29 1
    39    26    27 ar
    40    26    25 ar
    41    27    28 ar
    42    29    28 1
    43    29    22 1
    44    25    24 ar
    45    28    23 ar
    46    22    21 2
    47    24    23 ar
    48    23    20 1
    49    21    20 1
    50    20    18 2
    51    19    18 1
    52    18     1 1
    53     6     1 ar
    54     6     5 ar
    55     1     2 ar
    56     5     4 ar
    57     2     3 ar
    58     4     3 ar
    59     4    17 1
    60     2    52 1
    61     3    53 1
    62     5    54 1
    63     6    55 1
    64     7    56 1
    65     8    57 1
    66     9    58 1
    67    11    59 1
    68    90    60 1
    69    90    61 1
    70    13    62 1
    71    14    63 1
    72    19    64 1
    73    19    65 1
    74    19    66 1
    75    21    67 1
    76    22    68 1
    77    24    69 1
    78    25    70 1
    79    26    71 1
    80    27    72 1
    81    30    73 1
    82    30    74 1
    83    32    75 1
    84    34    76 1
    85    35    77 1
    86    36    78 1
    87    39    79 1
    88    40    80 1
    89    41    81 1
    90    42    82 1
    91    44    83 1
    92    44    84 1
    93    44    85 1
    94    46    86 1
    95    47    87 1
    96    50    88 1
    97    51    89 1
@<TRIPOS>SUBSTRUCTURE
     1 9X1         1 TEMP              0 ****  ****    0 ROOT
