@<TRIPOS>MOLECULE
9X1
   90    97     1     0     0
SMALL
bcc


@<TRIPOS>ATOM
      1 C1           0.0000     0.0000     0.0000 ca         1 9X1      -0.093700
      2 C2           1.3890     0.0000     0.0000 ca         1 9X1      -0.159500
      3 C3           2.0780     0.0000     1.1960 ca         1 9X1      -0.043500
      4 C4           1.3860     0.0020     2.3950 ca         1 9X1      -0.068100
      5 C5           0.0030     0.0010     2.3990 ca         1 9X1      -0.043500
      6 C6          -0.6930     0.0010     1.2050 ca         1 9X1      -0.159500
      7 C22         -7.6750    -1.2690     2.0570 ca         1 9X1      -0.078250
      8 C24         -7.3630     1.1110     2.2700 ca         1 9X1      -0.078250
      9 C25         -6.9030     1.1620     0.9700 ca         1 9X1      -0.070750
     10 C26         -8.2470    -0.1680     4.2200 cp         1 9X1      -0.012500
     11 C27         -8.3240     0.9940     4.9850 ca         1 9X1      -0.078250
     12 N33         -8.5750    -0.7140     9.1390 na         1 9X1       0.644900
     13 C34         -8.3840    -1.9810     9.4270 ca         1 9X1      -0.191800
     14 C35         -7.3590    -2.3950    10.2660 ca         1 9X1      -0.127500
     15 C36         -6.5050    -1.4560    10.8230 ca         1 9X1       0.184600
     16 C37         -6.7220    -0.0930    10.5040 ca         1 9X1      -0.054500
     17 Cl7          2.2550     0.0020     3.8980 cl         1 9X1       0.015100
     18 N1          -0.7010     0.0050    -1.2090 nh         1 9X1       0.047800
     19 C8           0.0310     0.0100    -2.4790 c3         1 9X1       0.035100
     20 C9          -2.0880     0.0060    -1.2080 cc         1 9X1       0.328200
     21 C10         -2.8020     1.1950    -1.2020 cc         1 9X1      -0.214100
     22 C11         -4.1900     1.1620    -1.2010 cd         1 9X1      -0.085500
     23 C14         -2.8190    -1.2050    -1.2180 ca         1 9X1      -0.138400
     24 C15         -2.1710    -2.4480    -1.2300 ca         1 9X1      -0.044500
     25 C16         -2.9100    -3.5930    -1.2380 ca         1 9X1      -0.052500
     26 C17         -4.3010    -3.5440    -1.2370 ca         1 9X1      -0.005000
     27 C18         -4.9610    -2.3540    -1.2260 ca         1 9X1      -0.146500
     28 C13         -4.2330    -1.1520    -1.2160 ca         1 9X1      -0.090900
     29 N12         -4.8570     0.0320    -1.2050 na         1 9X1       0.255200
     30 C19         -6.3210     0.0670    -1.2020 c3         1 9X1       0.117600
     31 C20         -6.8240     0.0050     0.2170 ca         1 9X1      -0.161800
     32 C21         -7.2140    -1.2070     0.7570 ca         1 9X1      -0.070750
     33 C23         -7.7520    -0.1080     2.8230 cp         1 9X1      -0.012500
     34 C31         -8.6310    -1.3880     4.7730 ca         1 9X1      -0.078250
     35 C30         -9.0910    -1.4380     6.0740 ca         1 9X1      -0.070750
     36 C28         -8.7850     0.9310     6.2850 ca         1 9X1      -0.070750
     37 C29         -9.1710    -0.2810     6.8270 ca         1 9X1      -0.161800
     38 C38         -7.7860     0.2460     9.6370 ca         1 9X1      -0.196800
     39 C39         -8.0040     1.5980     9.3190 ca         1 9X1      -0.146500
     40 C40         -7.1920     2.5550     9.8460 ca         1 9X1      -0.005000
     41 C41         -6.1450     2.2170    10.7000 ca         1 9X1      -0.052500
     42 C42         -5.9020     0.9160    11.0270 ca         1 9X1      -0.044500
     43 N43         -5.4720    -1.8380    11.6670 nh         1 9X1      -0.283400
     44 C44         -4.1520    -2.1520    11.1120 c3         1 9X1       0.212600
     45 C45         -5.6900    -1.9250    13.0450 ca         1 9X1       0.033100
     46 C46         -4.6570    -2.3080    13.8900 ca         1 9X1      -0.159500
     47 C47         -4.8750    -2.3920    15.2510 ca         1 9X1      -0.043500
     48 C48         -6.1230    -2.0960    15.7730 ca         1 9X1      -0.068100
     49 Cl5         -6.3950    -2.2120    17.4830 cl         1 9X1       0.015100
     50 C49         -7.1530    -1.7140    14.9320 ca         1 9X1      -0.043500
     51 C50         -6.9390    -1.6230    13.5720 ca         1 9X1      -0.159500
     52 H1           1.9310    -0.0010    -0.9380 ha         1 9X1       0.110500
     53 H2           3.1610     0.0000     1.1970 ha         1 9X1       0.121750
     54 H3          -0.5360     0.0020     3.3390 ha         1 9X1       0.121750
     55 H4          -1.7760     0.0010     1.2080 ha         1 9X1       0.110500
     56 H5          -7.9780    -2.2190     2.4800 ha         1 9X1       0.124750
     57 H6          -7.4220     2.0180     2.8600 ha         1 9X1       0.124750
     58 H7          -6.6000     2.1090     0.5400 ha         1 9X1       0.113250
     59 H8          -8.0210     1.9440     4.5620 ha         1 9X1       0.124750
     60 H9         -10.4630    -1.0820     8.3180 h1         1 9X1       0.074700
     61 H10        -10.0630     0.6270     8.5340 h1         1 9X1       0.074700
     62 H11         -9.0450    -2.7240     8.9970 h4         1 9X1       0.163000
     63 H12         -7.2260    -3.4480    10.4850 ha         1 9X1       0.161000
     64 H13          0.6880    -0.8500    -2.5210 h1         1 9X1       0.018867
     65 H14          0.6190     0.9170    -2.5540 h1         1 9X1       0.018867
     66 H15         -0.6730    -0.0320    -3.3010 h1         1 9X1       0.018867
     67 H16         -2.2800     2.1440    -1.1990 ha         1 9X1       0.161000
     68 H17         -4.7380     2.0960    -1.1970 h4         1 9X1       0.163000
     69 H18         -1.0890    -2.4980    -1.2310 ha         1 9X1       0.144000
     70 H19         -2.4090    -4.5530    -1.2470 ha         1 9X1       0.134000
     71 H20         -4.8670    -4.4680    -1.2440 ha         1 9X1       0.128000
     72 H21         -6.0440    -2.3330    -1.2260 ha         1 9X1       0.142000
     73 H22         -6.6610     0.9850    -1.6660 h1         1 9X1       0.074700
     74 H23         -6.7030    -0.7810    -1.7580 h1         1 9X1       0.074700
     75 H24         -7.1520    -2.1100     0.1620 ha         1 9X1       0.113250
     76 H25         -8.5710    -2.2950     4.1830 ha         1 9X1       0.124750
     77 H26         -9.3900    -2.3850     6.5060 ha         1 9X1       0.113250
     78 H27         -8.8450     1.8340     6.8810 ha         1 9X1       0.113250
     79 H28         -8.8140     1.8780     8.6560 ha         1 9X1       0.142000
     80 H29         -7.3660     3.5950     9.6010 ha         1 9X1       0.128000
     81 H30         -5.5140     2.9980    11.1070 ha         1 9X1       0.134000
     82 H31         -5.0850     0.6650    11.6920 ha         1 9X1       0.144000
     83 H32         -4.1610    -1.9850    10.0420 h1         1 9X1       0.018867
     84 H33         -3.4070    -1.5130    11.5710 h1         1 9X1       0.018867
     85 H34         -3.9130    -3.1890    11.3140 h1         1 9X1       0.018867
     86 H35         -3.6810    -2.5400    13.4820 ha         1 9X1       0.110500
     87 H36         -4.0690    -2.6910    15.9110 ha         1 9X1       0.121750
     88 H37         -8.1280    -1.4810    15.3440 ha         1 9X1       0.121750
     89 H38         -7.7470    -1.3240    12.9150 ha         1 9X1       0.110500
     90 C32         -9.6750    -0.3430     8.2460 c3         1 9X1      -0.059900
@<TRIPOS>BOND
     1     1     2 ar  
     2     1     6 ar  
     3     1    18 1   
     4     2     3 ar  
     5     2    52 1   
     6     3     4 ar  
     7     3    53 1   
     8     4     5 ar  
     9     4    17 1   
    10     5     6 ar  
    11     5    54 1   
    12     6    55 1   
    13     7    32 ar  
    14     7    33 ar  
    15     7    56 1   
    16     8     9 ar  
    17     8    33 ar  
    18     8    57 1   
    19     9    31 ar  
    20     9    58 1   
    21    10    11 ar  
    22    10    33 1   
    23    10    34 ar  
    24    11    36 ar  
    25    11    59 1   
    26    12    13 1   
    27    12    38 2   
    28    12    90 1   
    29    13    14 ar  
    30    13    62 1   
    31    14    15 ar  
    32    14    63 1   
    33    15    16 ar  
    34    15    43 1   
    35    16    38 ar  
    36    16    42 ar  
    37    18    19 1   
    38    18    20 2   
    39    19    64 1   
    40    19    65 1   
    41    19    66 1   
    42    20    21 1   
    43    20    23 1   
    44    21    22 2   
    45    21    67 1   
    46    22    29 1   
    47    22    68 1   
    48    23    24 ar  
    49    23    28 ar  
    50    24    25 ar  
    51    24    69 1   
    52    25    26 ar  
    53    25    70 1   
    54    26    27 ar  
    55    26    71 1   
    56    27    28 ar  
    57    27    72 1   
    58    28    29 1   
    59    29    30 1   
    60    30    31 1   
    61    30    73 1   
    62    30    74 1   
    63    31    32 ar  
    64    32    75 1   
    65    34    35 ar  
    66    34    76 1   
    67    35    37 ar  
    68    35    77 1   
    69    36    37 ar  
    70    36    78 1   
    71    37    90 1   
    72    38    39 ar  
    73    39    40 ar  
    74    39    79 1   
    75    40    41 ar  
    76    40    80 1   
    77    41    42 ar  
    78    41    81 1   
    79    42    82 1   
    80    43    44 1   
    81    43    45 1   
    82    44    83 1   
    83    44    84 1   
    84    44    85 1   
    85    45    46 ar  
    86    45    51 ar  
    87    46    47 ar  
    88    46    86 1   
    89    47    48 ar  
    90    47    87 1   
    91    48    49 1   
    92    48    50 ar  
    93    50    51 ar  
    94    50    88 1   
    95    51    89 1   
    96    60    90 1   
    97    61    90 1   
@<TRIPOS>SUBSTRUCTURE
     1 9X1         1 TEMP              0 ****  ****    0 ROOT
