@<TRIPOS>MOLECULE
molecule
   36    37     1     0     0
SMALL
bcc


@<TRIPOS>ATOM
      1 C10          0.0000     0.0000     0.0000 ca         1 9X3      -0.086300
      2 C01          1.3820     0.0000     0.0000 ca         1 9X3      -0.103000
      3 N01         -0.9990    -1.3780    -1.7350 n7         1 9X3      -0.809200
      4 C02         -0.6910     0.0020     1.1970 ca         1 9X3      -0.104000
      5 C03         -2.2050    -2.8830     5.6340 c3         1 9X3       0.139900
      6 C04          2.0740     0.0000     1.1970 ca         1 9X3      -0.131000
      7 C05         -1.9310    -1.4230     5.2620 c3         1 9X3       0.121300
      8 N           -0.9990    -1.3790     4.1250 n3         1 9X3      -0.723600
      9 C06         -0.0000     0.0030     2.3940 ca         1 9X3      -0.082300
     10 C07         -0.0360    -3.5120     4.8380 c3         1 9X3       0.139900
     11 C08         -1.7340    -1.4120    -3.0070 c3         1 9X3       0.144100
     12 O           -0.9670    -3.5360     5.9230 os         1 9X3      -0.426600
     13 C11          1.3820     0.0030     2.3940 ca         1 9X3      -0.126000
     14 C            0.2600    -2.0600     4.4580 c3         1 9X3       0.121300
     15 CAK         -0.7530     0.0050     3.6990 c3         1 9X3       0.209100
     16 CAJ         -0.7540     0.0050    -1.3060 c3         1 9X3       0.199100
     17 H01          1.9240    -0.0020    -0.9380 ha         1 9X3       0.135000
     18 H02         -1.7740     0.0020     1.1970 ha         1 9X3       0.131000
     19 HAJ1        -1.7000     0.5160    -1.1740 h1         1 9X3       0.037200
     20 HAJ2        -0.1680     0.5190    -2.0590 h1         1 9X3       0.037200
     21 H04          3.1570     0.0000     1.1970 ha         1 9X3       0.130000
     22 HA          -1.5380    -1.8340    -1.0260 hn         1 9X3       0.354800
     23 H081        -1.1580    -0.9030    -3.7700 h1         1 9X3       0.031033
     24 H082        -2.6890    -0.9170    -2.8850 h1         1 9X3       0.031033
     25 H083        -1.8950    -2.4410    -3.3030 h1         1 9X3       0.031033
     26 H032        -2.8440    -2.9180     6.5080 h1         1 9X3       0.053450
     27 H051        -1.4900    -0.9110     6.1090 h1         1 9X3       0.043950
     28 H052        -2.8610    -0.9410     4.9850 h1         1 9X3       0.043950
     29 H11          1.9240     0.0030     3.3320 ha         1 9X3       0.128000
     30 HC1          0.9200    -2.0390     3.5990 h1         1 9X3       0.043950
     31 HC2          0.7310    -1.5570     5.2940 h1         1 9X3       0.043950
     32 HAK1        -0.1670     0.5160     4.4530 h1         1 9X3       0.040200
     33 HAK2        -1.6990     0.5160     3.5690 h1         1 9X3       0.040200
     34 H071         0.8830    -4.0000     5.1400 h1         1 9X3       0.053450
     35 H072        -0.4630    -4.0280     3.9860 h1         1 9X3       0.053450
     36 H031        -2.6910    -3.3810     4.8040 h1         1 9X3       0.053450
@<TRIPOS>BOND
     1     1     2 ar
     2     1     4 ar
     3     1    16 1
     4     2     6 ar
     5     3    11 1
     6     3    16 1
     7     4     9 ar
     8     5     7 1
     9     5    12 1
    10     6    13 ar
    11     7     8 1
    12     8    14 1
    13     8    15 1
    14     9    13 ar
    15     9    15 1
    16    10    12 1
    17    10    14 1
    18     2    17 1
    19     4    18 1
    20    16    19 1
    21    16    20 1
    22     6    21 1
    23     3    22 1
    24    11    23 1
    25    11    24 1
    26    11    25 1
    27     5    36 1
    28     5    26 1
    29     7    27 1
    30     7    28 1
    31    13    29 1
    32    14    30 1
    33    14    31 1
    34    15    32 1
    35    15    33 1
    36    10    34 1
    37    10    35 1
@<TRIPOS>SUBSTRUCTURE
     1 9X3         1 TEMP              0 ****  ****    0 ROOT
