@<TRIPOS>MOLECULE
9X3
   36    37     1     0     0
SMALL
bcc


@<TRIPOS>ATOM
      1 C10          0.0000     0.0000     0.0000 ca         1 9X3      -0.095300
      2 C01          1.3820     0.0000     0.0000 ca         1 9X3      -0.077000
      3 N01         -0.9990    -1.3780    -1.7350 n7         1 9X3      -0.580200
      4 C02         -0.6910     0.0020     1.1970 ca         1 9X3      -0.076000
      5 C03         -2.2050    -2.8830     5.6340 c3         1 9X3       0.215400
      6 C04          2.0740     0.0000     1.1970 ca         1 9X3      -0.102000
      7 C05         -1.9310    -1.4230     5.2620 c3         1 9X3       0.103800
      8 N           -0.9990    -1.3790     4.1250 n3         1 9X3      -0.533600
      9 C06         -0.0000     0.0030     2.3940 ca         1 9X3      -0.093300
     10 C07         -0.0360    -3.5120     4.8380 c3         1 9X3       0.215400
     11 C08         -1.7340    -1.4120    -3.0070 c3         1 9X3       0.178100
     12 O           -0.9670    -3.5360     5.9230 os         1 9X3      -0.413600
     13 C11          1.3820     0.0030     2.3940 ca         1 9X3      -0.102000
     14 C            0.2600    -2.0600     4.4580 c3         1 9X3       0.103800
     15 CAK         -0.7530     0.0050     3.6990 c3         1 9X3       0.213100
     16 CAJ         -0.7540     0.0050    -1.3060 c3         1 9X3       0.200100
     17 H01          1.9240    -0.0020    -0.9380 ha         1 9X3       0.109000
     18 H02         -1.7740     0.0020     1.1970 ha         1 9X3       0.107000
     19 HAJ1        -1.7000     0.5160    -1.1740 h1         1 9X3       0.008700
     20 HAJ2        -0.1680     0.5190    -2.0590 h1         1 9X3       0.008700
     21 H04          3.1570     0.0000     1.1970 ha         1 9X3       0.103000
     22 HA          -1.5380    -1.8340    -1.0260 hn         1 9X3       0.253800
     23 H081        -1.1580    -0.9030    -3.7700 h1         1 9X3      -0.001967
     24 H082        -2.6890    -0.9170    -2.8850 h1         1 9X3      -0.001967
     25 H083        -1.8950    -2.4410    -3.3030 h1         1 9X3      -0.001967
     26 H032        -2.8440    -2.9180     6.5080 h1         1 9X3       0.012700
     27 H051        -1.4900    -0.9110     6.1090 h1         1 9X3       0.019700
     28 H052        -2.8610    -0.9410     4.9850 h1         1 9X3       0.019700
     29 H11          1.9240     0.0030     3.3320 ha         1 9X3       0.106000
     30 HC1          0.9200    -2.0390     3.5990 h1         1 9X3       0.019700
     31 HC2          0.7310    -1.5570     5.2940 h1         1 9X3       0.019700
     32 HAK1        -0.1670     0.5160     4.4530 h1         1 9X3       0.012200
     33 HAK2        -1.6990     0.5160     3.5690 h1         1 9X3       0.012200
     34 H071         0.8830    -4.0000     5.1400 h1         1 9X3       0.012700
     35 H072        -0.4630    -4.0280     3.9860 h1         1 9X3       0.012700
     36 H031        -2.6910    -3.3810     4.8040 h1         1 9X3       0.012700
@<TRIPOS>BOND
     1     1     2 ar  
     2     1     4 ar  
     3     1    16 1   
     4     2     6 ar  
     5     2    17 1   
     6     3    11 1   
     7     3    16 1   
     8     3    22 1   
     9     4     9 ar  
    10     4    18 1   
    11     5     7 1   
    12     5    12 1   
    13     5    26 1   
    14     5    36 1   
    15     6    13 ar  
    16     6    21 1   
    17     7     8 1   
    18     7    27 1   
    19     7    28 1   
    20     8    14 1   
    21     8    15 1   
    22     9    13 ar  
    23     9    15 1   
    24    10    12 1   
    25    10    14 1   
    26    10    34 1   
    27    10    35 1   
    28    11    23 1   
    29    11    24 1   
    30    11    25 1   
    31    13    29 1   
    32    14    30 1   
    33    14    31 1   
    34    15    32 1   
    35    15    33 1   
    36    16    19 1   
    37    16    20 1   
@<TRIPOS>SUBSTRUCTURE
     1 9X3         1 TEMP              0 ****  ****    0 ROOT
