@<TRIPOS>MOLECULE
molecule
   29    31     1     0     0
SMALL
bcc


@<TRIPOS>ATOM
      1 C3           0.0000     0.0000     0.0000 c3         1 9X5       0.163100
      2 C4           1.5040     0.0000     0.0000 ca         1 9X5      -0.081300
      3 C1          -0.8580    -2.8290    -2.3280 c3         1 9X5      -0.130400
      4 C2          -0.3060    -1.5170    -1.8330 ce         1 9X5       0.475900
      5 N1          -0.4890    -1.2330    -0.6040 n2         1 9X5      -0.601900
      6 C5           2.1690     0.0000     1.2160 ca         1 9X5      -0.117000
      7 C6           3.5490    -0.0150     1.2540 ca         1 9X5      -0.123000
      8 C7           4.2760    -0.0330     0.0780 ca         1 9X5      -0.129000
      9 C8           3.6240    -0.0250    -1.1360 ca         1 9X5      -0.116000
     10 C9           2.2250    -0.0050    -1.1810 cp         1 9X5      -0.037000
     11 C10          1.5690     0.0220    -2.5090 cp         1 9X5      -0.010000
     12 C11          2.1780     0.7970    -3.5050 ca         1 9X5      -0.125000
     13 C12          1.6260     0.8760    -4.7650 ca         1 9X5      -0.118000
     14 C13          0.4600     0.1900    -5.0580 ca         1 9X5      -0.131000
     15 C14         -0.1520    -0.5770    -4.0930 ca         1 9X5      -0.107000
     16 C15          0.3960    -0.6740    -2.8050 ca         1 9X5      -0.169900
     17 H1          -0.3490     0.8390    -0.5900 h1         1 9X5       0.063200
     18 H2          -0.3480     0.0480     1.0250 h1         1 9X5       0.063200
     19 H3          -0.9920    -3.5030    -1.4910 hc         1 9X5       0.053367
     20 H4          -1.8130    -2.6590    -2.8110 hc         1 9X5       0.053367
     21 H5          -0.1670    -3.2670    -3.0380 hc         1 9X5       0.053367
     22 H6           1.6030     0.0140     2.1400 ha         1 9X5       0.135000
     23 H7           4.0630    -0.0210     2.2080 ha         1 9X5       0.131000
     24 H8           5.3590    -0.0440     0.1110 ha         1 9X5       0.131000
     25 H9           4.1950    -0.0390    -2.0570 ha         1 9X5       0.135000
     26 H10          3.0910     1.3360    -3.2830 ha         1 9X5       0.137000
     27 H11          2.1040     1.4790    -5.5270 ha         1 9X5       0.132000
     28 H12          0.0290     0.2560    -6.0500 ha         1 9X5       0.132000
     29 H13         -1.0640    -1.1100    -4.3300 ha         1 9X5       0.135000
@<TRIPOS>BOND
     1     8     9 ar
     2     8     7 ar
     3     9    10 ar
     4     7     6 ar
     5    10    11 1
     6    10     2 ar
     7    12    11 ar
     8    12    13 ar
     9     6     2 ar
    10    11    16 ar
    11    13    14 ar
    12     2     1 1
    13     3     4 1
    14    16     4 1
    15    16    15 ar
    16    14    15 ar
    17     4     5 2
    18     5     1 1
    19     1    17 1
    20     1    18 1
    21     3    19 1
    22     3    20 1
    23     3    21 1
    24     6    22 1
    25     7    23 1
    26     8    24 1
    27     9    25 1
    28    12    26 1
    29    13    27 1
    30    14    28 1
    31    15    29 1
@<TRIPOS>SUBSTRUCTURE
     1 9X5         1 TEMP              0 ****  ****    0 ROOT
