@<TRIPOS>MOLECULE
9X5
   29    31     1     0     0
SMALL
bcc


@<TRIPOS>ATOM
      1 C3           0.0000     0.0000     0.0000 c3         1 9X5       0.211100
      2 C4           1.5040     0.0000     0.0000 ca         1 9X5      -0.092300
      3 C1          -0.8580    -2.8290    -2.3280 c3         1 9X5      -0.036400
      4 C2          -0.3060    -1.5170    -1.8330 ce         1 9X5       0.434900
      5 N1          -0.4890    -1.2330    -0.6040 n2         1 9X5      -0.525900
      6 C5           2.1690     0.0000     1.2160 ca         1 9X5      -0.087000
      7 C6           3.5490    -0.0150     1.2540 ca         1 9X5      -0.097000
      8 C7           4.2760    -0.0330     0.0780 ca         1 9X5      -0.100000
      9 C8           3.6240    -0.0250    -1.1360 ca         1 9X5      -0.095000
     10 C9           2.2250    -0.0050    -1.1810 cp         1 9X5      -0.031000
     11 C10          1.5690     0.0220    -2.5090 cp         1 9X5      -0.003000
     12 C11          2.1780     0.7970    -3.5050 ca         1 9X5      -0.104000
     13 C12          1.6260     0.8760    -4.7650 ca         1 9X5      -0.089000
     14 C13          0.4600     0.1900    -5.0580 ca         1 9X5      -0.105000
     15 C14         -0.1520    -0.5770    -4.0930 ca         1 9X5      -0.082000
     16 C15          0.3960    -0.6740    -2.8050 ca         1 9X5      -0.156900
     17 H1          -0.3490     0.8390    -0.5900 h1         1 9X5       0.024700
     18 H2          -0.3480     0.0480     1.0250 h1         1 9X5       0.024700
     19 H3          -0.9920    -3.5030    -1.4910 hc         1 9X5       0.015700
     20 H4          -1.8130    -2.6590    -2.8110 hc         1 9X5       0.015700
     21 H5          -0.1670    -3.2670    -3.0380 hc         1 9X5       0.015700
     22 H6           1.6030     0.0140     2.1400 ha         1 9X5       0.110000
     23 H7           4.0630    -0.0210     2.2080 ha         1 9X5       0.103000
     24 H8           5.3590    -0.0440     0.1110 ha         1 9X5       0.103000
     25 H9           4.1950    -0.0390    -2.0570 ha         1 9X5       0.111000
     26 H10          3.0910     1.3360    -3.2830 ha         1 9X5       0.113000
     27 H11          2.1040     1.4790    -5.5270 ha         1 9X5       0.104000
     28 H12          0.0290     0.2560    -6.0500 ha         1 9X5       0.105000
     29 H13         -1.0640    -1.1100    -4.3300 ha         1 9X5       0.111000
@<TRIPOS>BOND
     1     1     2 1   
     2     1     5 1   
     3     1    17 1   
     4     1    18 1   
     5     2     6 ar  
     6     2    10 ar  
     7     3     4 1   
     8     3    19 1   
     9     3    20 1   
    10     3    21 1   
    11     4     5 2   
    12     4    16 1   
    13     6     7 ar  
    14     6    22 1   
    15     7     8 ar  
    16     7    23 1   
    17     8     9 ar  
    18     8    24 1   
    19     9    10 ar  
    20     9    25 1   
    21    10    11 1   
    22    11    12 ar  
    23    11    16 ar  
    24    12    13 ar  
    25    12    26 1   
    26    13    14 ar  
    27    13    27 1   
    28    14    15 ar  
    29    14    28 1   
    30    15    16 ar  
    31    15    29 1   
@<TRIPOS>SUBSTRUCTURE
     1 9X5         1 TEMP              0 ****  ****    0 ROOT
