@<TRIPOS>MOLECULE
9X6
   13    12     1     0     0
SMALL
bcc


@<TRIPOS>ATOM
      1 C3          0.0770    0.4010   -0.1690 c         1 9X6      0.925600
      2 C4          1.3980   -0.2210    0.3010 c3        1 9X6     -0.113300
      3 C2          3.7810   -0.1980    1.5610 c3        1 9X6     -0.113300
      4 C1          4.7640    0.2500    2.6500 c         1 9X6      0.925600
      5 S2          2.2840    0.7560    1.4900 ss        1 9X6     -0.304200
      6 O4         -0.9790    0.1650    0.4900 o         1 9X6     -0.858800
      7 O3          0.0710    1.0560   -1.2530 o         1 9X6     -0.858800
      8 O2          5.6090    1.1540    2.3780 o         1 9X6     -0.858800
      9 O1          4.7570   -0.3650    3.7580 o         1 9X6     -0.858800
     10 H41C        1.1750   -1.2180    0.7510 h1        1 9X6      0.029200
     11 H42C        2.0490   -0.3770   -0.5920 h1        1 9X6      0.029200
     12 H21C        4.2970   -0.1280    0.5740 h1        1 9X6      0.029200
     13 H22C        3.5170   -1.2660    1.7450 h1        1 9X6      0.029200
@<TRIPOS>BOND
     1    1    2 1   
     2    1    6 1   
     3    1    7 1   
     4    2    5 1   
     5    2   10 1   
     6    2   11 1   
     7    3    4 1   
     8    3    5 1   
     9    3   12 1   
    10    3   13 1   
    11    4    8 1   
    12    4    9 1   
@<TRIPOS>SUBSTRUCTURE
     1 9X6         1 TEMP              0 ****  ****    0 ROOT
