@<TRIPOS>MOLECULE
molecule
   13    12     1     0     0
SMALL
bcc


@<TRIPOS>ATOM
      1 C3           0.0000     0.0000     0.0000 c          1 9X6       0.907600
      2 C4           1.5070     0.0000     0.0000 c3         1 9X6      -0.103800
      3 C2           3.9140     0.0010     1.5080 c3         1 9X6      -0.103800
      4 C1           4.5710     0.0000     2.8640 c          1 9X6       0.907600
      5 S2           2.1100     0.0000     1.7110 ss         1 9X6      -0.297200
      6 O4          -0.6050     0.0050     1.0450 o          1 9X6      -0.857800
      7 O3          -0.6710    -0.0010    -1.1640 o          1 9X6      -0.857800
      8 O2           5.9110     0.0010     2.9590 o          1 9X6      -0.857800
      9 O1           3.8950     0.0010     3.8640 o          1 9X6      -0.857800
     10 H41C         1.8680    -0.8850    -0.5100 h1         1 9X6       0.029700
     11 H42C         1.8680     0.8850    -0.5100 h1         1 9X6       0.029700
     12 H21C         4.2160    -0.8840     0.9600 h1         1 9X6       0.029700
     13 H22C         4.2150     0.8860     0.9600 h1         1 9X6       0.029700
@<TRIPOS>BOND
     1     6     1 1
     2     1     7 1
     3     1     2 1
     4     2     5 1
     5     5     3 1
     6     3     4 1
     7     4     9 1
     8     4     8 1
     9     2    10 1
    10     2    11 1
    11     3    12 1
    12     3    13 1
@<TRIPOS>SUBSTRUCTURE
     1 9X6         1 TEMP              0 ****  ****    0 ROOT
