@<TRIPOS>MOLECULE
molecule
   16    15     1     0     0
SMALL
bcc


@<TRIPOS>ATOM
      1 C1           0.0000     0.0000     0.0000 c3         1 9X7      -0.095100
      2 C2           1.5310     0.0000     0.0000 c3         1 9X7       0.141400
      3 O1           2.0140     0.0000     1.3700 os         1 9X7      -0.403900
      4 C3           3.3490    -0.0000     1.5460 c          1 9X7       0.538100
      5 C4           3.9180     0.0000     2.9230 c          1 9X7       0.517100
      6 C5           5.4120    -0.0000     3.1220 c3         1 9X7      -0.173100
      7 O3           3.1820     0.0000     3.8820 o          1 9X7      -0.468100
      8 O2           4.0870    -0.0000     0.5850 o          1 9X7      -0.528000
      9 H1          -0.3610     0.0000    -1.0210 hc         1 9X7       0.049700
     10 H2          -0.3610    -0.8850     0.5110 hc         1 9X7       0.049700
     11 H3          -0.3610     0.8850     0.5110 hc         1 9X7       0.049700
     12 H4           1.8920     0.8850    -0.5110 h1         1 9X7       0.049700
     13 H5           1.8920    -0.8850    -0.5110 h1         1 9X7       0.049700
     14 H6           5.8370     0.8850     2.6630 hc         1 9X7       0.073700
     15 H7           5.6350    -0.0000     4.1820 hc         1 9X7       0.073700
     16 H8           5.8370    -0.8850     2.6630 hc         1 9X7       0.073700
@<TRIPOS>BOND
     1     7     5 2
     2     5     6 1
     3     5     4 1
     4     3     2 1
     5     3     4 1
     6     2     1 1
     7     4     8 2
     8     1     9 1
     9     1    10 1
    10     1    11 1
    11     2    12 1
    12     2    13 1
    13     6    14 1
    14     6    15 1
    15     6    16 1
@<TRIPOS>SUBSTRUCTURE
     1 9X7         1 TEMP              0 ****  ****    0 ROOT
