@<TRIPOS>MOLECULE
9XA
   65    68     1     0     0
SMALL
bcc


@<TRIPOS>ATOM
      1 C2           0.0000     0.0000     0.0000 cc         1 9XA      -0.170300
      2 C3           1.4060     0.0000     0.0000 cc         1 9XA      -0.197000
      3 C11          4.1010     0.0000    -0.0490 c3         1 9XA       0.191400
      4 C12          5.6150    -0.0000     0.1770 c3         1 9XA       0.151800
      5 C14         -3.1430    -0.0030     1.8460 ca         1 9XA       0.064200
      6 C15          5.7950    -2.4030    -0.0660 c3         1 9XA       0.106800
      7 C16          6.1460    -3.6960     0.6740 c3         1 9XA       0.157800
      8 C18          7.7630    -2.4910     2.0120 c3         1 9XA       0.157800
      9 C19          7.4130    -1.1970     1.2720 c3         1 9XA       0.106800
     10 C20         -4.4140     0.4430     1.4690 ca         1 9XA      -0.228300
     11 C21         -5.4390     0.4170     2.4020 ca         1 9XA       0.520200
     12 C23         -4.0360    -0.4490     4.0270 ca         1 9XA       0.427300
     13 C24         -2.9630    -0.4580     3.1620 ca         1 9XA      -0.261300
     14 C27          8.4610    -3.5940    -0.0280 c3         1 9XA       0.168100
     15 N1          -0.6780    -0.0020     1.1910 na         1 9XA       0.589700
     16 C4           2.0750     0.0000     1.1930 cd         1 9XA       0.204100
     17 C5           1.3470    -0.0020     2.3990 cd         1 9XA      -0.156500
     18 C6          -0.0010    -0.0010     2.3760 cc         1 9XA      -0.138300
     19 C7          -2.0230    -0.0020     0.8860 cc         1 9XA      -0.381300
     20 C8          -2.1190    -0.0010    -0.4770 cd         1 9XA       0.105600
     21 N9          -0.8900    -0.0040    -0.9860 nd         1 9XA      -0.265600
     22 O10          3.4330    -0.0010     1.2140 os         1 9XA      -0.262900
     23 N13          6.0130    -1.2560     0.8260 n3         1 9XA      -0.512600
     24 N17          7.5450    -3.6380     1.1190 n3         1 9XA      -0.541600
     25 N22         -5.2230    -0.0200     3.6350 nb         1 9XA      -0.586000
     26 Cl25        -3.8240    -1.0090     5.6570 cl         1 9XA      -0.082000
     27 N26         -6.7080     0.8570     2.0420 nv         1 9XA      -0.658500
     28 S28          2.2000    -0.0030     3.9410 sy         1 9XA       0.882300
     29 O29          1.2030    -0.3550     4.8910 o          1 9XA      -0.568800
     30 O30          3.3260    -0.8410     3.7170 o          1 9XA      -0.568800
     31 C31          2.7210     1.7180     4.1710 c3         1 9XA      -0.020200
     32 C32          3.5710     1.8280     5.4390 c3         1 9XA       0.020567
     33 C33          3.5470     2.1670     2.9640 c3         1 9XA       0.020567
     34 C34          1.4870     2.6120     4.3050 c3         1 9XA       0.020567
     35 H1           1.9530     0.0010    -0.9350 ha         1 9XA       0.147000
     36 H2           3.8190     0.8850    -0.6060 h1         1 9XA       0.009700
     37 H3           3.8190    -0.8840    -0.6080 h1         1 9XA       0.009700
     38 H4           6.1220     0.0900    -0.7760 h1         1 9XA       0.017200
     39 H5           5.8860     0.8360     0.8100 h1         1 9XA       0.017200
     40 H6           6.4280    -2.3050    -0.9400 h1         1 9XA       0.015200
     41 H7           4.7550    -2.4310    -0.3690 h1         1 9XA       0.015200
     42 H8           5.4980    -3.8050     1.5350 h1         1 9XA       0.032700
     43 H9           6.0140    -4.5400     0.0070 h1         1 9XA       0.032700
     44 H10          7.1290    -2.5900     2.8850 h1         1 9XA       0.032700
     45 H11          8.8030    -2.4630     2.3150 h1         1 9XA       0.032700
     46 H12          8.0610    -1.0880     0.4110 h1         1 9XA       0.015200
     47 H13          7.5430    -0.3540     1.9390 h1         1 9XA       0.015200
     48 H14         -4.5950     0.8010     0.4630 ha         1 9XA       0.127000
     49 H15         -1.9940    -0.8120     3.4930 ha         1 9XA       0.135000
     50 H16          8.2940    -4.4610    -0.6570 h1         1 9XA       0.002700
     51 H17          9.4850    -3.5980     0.3270 h1         1 9XA       0.002700
     52 H18          8.2810    -2.6920    -0.6010 h1         1 9XA       0.002700
     53 H19         -0.5540    -0.0030     3.3080 h4         1 9XA       0.177000
     54 H20         -3.0400     0.0010    -1.0460 h4         1 9XA       0.144000
     55 H23         -7.3760     0.2100     1.6740 hn         1 9XA       0.279300
     56 H24         -6.9620     1.8160     2.1770 hn         1 9XA       0.279300
     57 H25          2.9780     1.5350     6.2970 hc         1 9XA       0.017922
     58 H26          4.4310     1.1760     5.3540 hc         1 9XA       0.017922
     59 H27          3.9040     2.8520     5.5620 hc         1 9XA       0.017922
     60 H28          3.9790     3.1400     3.1640 hc         1 9XA       0.017922
     61 H29          4.3400     1.4510     2.7830 hc         1 9XA       0.017922
     62 H30          2.9090     2.2270     2.0910 hc         1 9XA       0.017922
     63 H31          0.7980     2.1720     5.0170 hc         1 9XA       0.017922
     64 H32          1.0010     2.7030     3.3410 hc         1 9XA       0.017922
     65 H33          1.7880     3.5930     4.6530 hc         1 9XA       0.017922
@<TRIPOS>BOND
     1     1     2 1   
     2     1    15 1   
     3     1    21 2   
     4     2    16 2   
     5     2    35 1   
     6     3     4 1   
     7     3    22 1   
     8     3    36 1   
     9     3    37 1   
    10     4    23 1   
    11     4    38 1   
    12     4    39 1   
    13     5    10 ar  
    14     5    13 ar  
    15     5    19 1   
    16     6     7 1   
    17     6    23 1   
    18     6    40 1   
    19     6    41 1   
    20     7    24 1   
    21     7    42 1   
    22     7    43 1   
    23     8     9 1   
    24     8    24 1   
    25     8    44 1   
    26     8    45 1   
    27     9    23 1   
    28     9    46 1   
    29     9    47 1   
    30    10    11 ar  
    31    10    48 1   
    32    11    25 ar  
    33    11    27 1   
    34    12    13 ar  
    35    12    25 ar  
    36    12    26 1   
    37    13    49 1   
    38    14    24 1   
    39    14    50 1   
    40    14    51 1   
    41    14    52 1   
    42    15    18 1   
    43    15    19 1   
    44    16    17 1   
    45    16    22 1   
    46    17    18 2   
    47    17    28 1   
    48    18    53 1   
    49    19    20 2   
    50    20    21 1   
    51    20    54 1   
    52    27    55 1   
    53    27    56 1   
    54    28    29 2   
    55    28    30 2   
    56    28    31 1   
    57    31    32 1   
    58    31    33 1   
    59    31    34 1   
    60    32    57 1   
    61    32    58 1   
    62    32    59 1   
    63    33    60 1   
    64    33    61 1   
    65    33    62 1   
    66    34    63 1   
    67    34    64 1   
    68    34    65 1   
@<TRIPOS>SUBSTRUCTURE
     1 9XA         1 TEMP              0 ****  ****    0 ROOT
