@<TRIPOS>MOLECULE
9XE
   48    51     1     0     0
SMALL
bcc


@<TRIPOS>ATOM
      1 C12          0.0000     0.0000     0.0000 ca         1 9XE       0.410200
      2 C15         -0.0140     0.0060     2.4070 ca         1 9XE      -0.048000
      3 C16          2.1770     0.0000     3.6120 cp         1 9XE      -0.059000
      4 C20          2.2760     0.0070     6.0110 ca         1 9XE      -0.153000
      5 C19          3.6630     0.0020     5.9490 ca         1 9XE       0.144100
      6 C18          4.3070     0.0010     4.7190 ca         1 9XE      -0.153000
      7 C11         -8.3260     2.9650    -1.0560 c3         1 9XE       0.244700
      8 C6          -4.2710    -0.9460     1.9230 c          1 9XE       0.648900
      9 C5          -4.9800     0.0800     1.1380 ca         1 9XE      -0.247600
     10 C3          -4.8750     1.9900    -0.3340 ca         1 9XE      -0.222000
     11 C2          -6.2580     2.0270    -0.3530 ca         1 9XE       0.212100
     12 N1           1.3160     0.0000     0.0000 nb         1 9XE      -0.570000
     13 C8          -2.8610    -0.9290     1.9140 cc         1 9XE      -0.275400
     14 C9          -2.0920    -1.9540     2.7070 c3         1 9XE       0.074100
     15 C10         -0.7160     0.0060     1.1980 ca         1 9XE      -0.185100
     16 F2           6.2200     1.1340     6.2560 f          1 9XE      -0.196300
     17 F            6.2120    -1.1500     6.2630 f          1 9XE      -0.196300
     18 F1           6.4050    -0.0020     8.2290 f          1 9XE      -0.196300
     19 O2           4.3920     0.0010     7.0950 os         1 9XE      -0.313900
     20 C17          3.5690     0.0010     3.5530 ca         1 9XE      -0.052000
     21 C21          1.5340     0.0060     4.8480 ca         1 9XE      -0.052000
     22 C14          1.3800     0.0010     2.3590 cp         1 9XE      -0.142300
     23 C13          2.0150     0.0000     1.1180 ca         1 9XE       0.411200
     24 C7          -2.1940     0.0120     1.1910 cd         1 9XE       0.037800
     25 C           -6.3750     0.1300     1.1050 ca         1 9XE       0.044000
     26 N           -2.8460     0.9610     0.4560 na         1 9XE      -0.086400
     27 C4          -4.2220     1.0190     0.4160 ca         1 9XE       0.049600
     28 C1          -7.0010     1.0920     0.3660 ca         1 9XE      -0.256000
     29 O1          -6.8960     2.9810    -1.0780 os         1 9XE      -0.307900
     30 H1          -0.5350    -0.0000    -0.9420 h4         1 9XE      -0.016900
     31 H2          -0.5380     0.0100     3.3550 ha         1 9XE       0.135000
     32 H3           1.7770     0.0100     6.9720 ha         1 9XE       0.128500
     33 H4           5.3890    -0.0010     4.6740 ha         1 9XE       0.128500
     34 H5          -8.6730     3.0920    -0.0380 h1         1 9XE       0.000033
     35 H6          -8.6820     2.0180    -1.4430 h1         1 9XE       0.000033
     36 H7          -8.7050     3.7720    -1.6700 h1         1 9XE       0.000033
     37 H8          -4.3030     2.7190    -0.8950 ha         1 9XE       0.124000
     38 H10         -1.8510    -1.5490     3.6830 hc         1 9XE       0.013367
     39 H11         -1.1780    -2.2040     2.1840 hc         1 9XE       0.013367
     40 H12         -2.6960    -2.8460     2.8260 hc         1 9XE       0.013367
     41 H13          4.0720    -0.0020     2.5940 ha         1 9XE       0.116000
     42 H14          0.4520     0.0080     4.8960 ha         1 9XE       0.116000
     43 H15          3.0980    -0.0020     1.0710 h4         1 9XE      -0.009900
     44 H16         -6.9580    -0.5930     1.6620 ha         1 9XE       0.124000
     45 H17         -8.0840     1.1320     0.3430 ha         1 9XE       0.126000
     46 H9          -2.3130     1.6320    -0.0600 hn         1 9XE       0.278800
     47 O           -4.8870    -1.7810     2.5670 o          1 9XE      -0.609100
     48 C22          5.8150    -0.0040     6.9600 c3         1 9XE       0.756700
@<TRIPOS>BOND
     1     1    12 ar  
     2     1    15 ar  
     3     1    30 1   
     4     2    15 ar  
     5     2    22 ar  
     6     2    31 1   
     7     3    20 ar  
     8     3    21 ar  
     9     3    22 1   
    10     4     5 ar  
    11     4    21 ar  
    12     4    32 1   
    13     5     6 ar  
    14     5    19 1   
    15     6    20 ar  
    16     6    33 1   
    17     7    29 1   
    18     7    34 1   
    19     7    35 1   
    20     7    36 1   
    21     8     9 1   
    22     8    13 1   
    23     8    47 2   
    24     9    25 ar  
    25     9    27 ar  
    26    10    11 ar  
    27    10    27 ar  
    28    10    37 1   
    29    11    28 ar  
    30    11    29 1   
    31    12    23 ar  
    32    13    14 1   
    33    13    24 2   
    34    14    38 1   
    35    14    39 1   
    36    14    40 1   
    37    15    24 1   
    38    16    48 1   
    39    17    48 1   
    40    18    48 1   
    41    19    48 1   
    42    20    41 1   
    43    21    42 1   
    44    22    23 ar  
    45    23    43 1   
    46    24    26 1   
    47    25    28 ar  
    48    25    44 1   
    49    26    27 1   
    50    26    46 1   
    51    28    45 1   
@<TRIPOS>SUBSTRUCTURE
     1 9XE         1 TEMP              0 ****  ****    0 ROOT
