@<TRIPOS>MOLECULE
9XG
   27    28     1     0     0
SMALL
bcc


@<TRIPOS>ATOM
      1 CAA          0.0000     0.0000     0.0000 c3         1 9XG       0.062200
      2 CAB          6.7680     1.8850    -5.0410 ca         1 9XG      -0.139000
      3 CAC          6.2280     0.8140    -5.7290 ca         1 9XG      -0.066500
      4 CAD          6.1580     2.3490    -3.8890 ca         1 9XG      -0.066500
      5 CAE          3.7780     0.0000     0.0000 ca         1 9XG      -0.063000
      6 CAF          2.4650     0.0000     0.4360 ca         1 9XG      -0.140000
      7 CAG          5.0790     0.2040    -5.2680 ca         1 9XG      -0.158000
      8 CAH          5.0080     1.7440    -3.4220 ca         1 9XG      -0.158000
      9 CAI          4.0580     0.0190    -1.3510 ca         1 9XG      -0.165000
     10 CAJ          1.7030     0.0270    -1.8330 ca         1 9XG      -0.160000
     11 CAL          1.4290     0.0130    -0.4800 ca         1 9XG      -0.054300
     12 CAM          4.4630     0.6670    -4.1110 ca         1 9XG       0.025600
     13 CAN          3.0190     0.0390    -2.2740 ca         1 9XG       0.029600
     14 NAK          3.2990     0.0530    -3.6430 nu         1 9XG      -0.232000
     15 HAB         -0.0240     0.1850     1.0670 hc         1 9XG       0.007367
     16 HAC         -0.5600     0.7720    -0.5130 hc         1 9XG       0.007367
     17 HAA         -0.4420    -0.9670    -0.2090 hc         1 9XG       0.007367
     18 HAE          6.7080     0.4530    -6.6300 ha         1 9XG       0.100500
     19 HAF          6.5830     3.1880    -3.3520 ha         1 9XG       0.100500
     20 HAG          4.5870    -0.0130     0.7200 ha         1 9XG       0.101000
     21 HAH          2.2480    -0.0150     1.4980 ha         1 9XG       0.107000
     22 HAI          4.6570    -0.6350    -5.8080 ha         1 9XG       0.116000
     23 HAJ          4.5320     2.1080    -2.5210 ha         1 9XG       0.116000
     24 HAK          5.0870     0.0230    -1.6910 ha         1 9XG       0.125000
     25 HAL          0.8910     0.0420    -2.5500 ha         1 9XG       0.110000
     26 HAM          2.6570    -0.3610    -4.2890 hn         1 9XG       0.285800
     27 HAD          7.6700     2.3620    -5.4050 ha         1 9XG       0.103000
@<TRIPOS>BOND
     1     1    11 1   
     2     1    15 1   
     3     1    16 1   
     4     1    17 1   
     5     2     3 ar  
     6     2     4 ar  
     7     2    27 1   
     8     3     7 ar  
     9     3    18 1   
    10     4     8 ar  
    11     4    19 1   
    12     5     6 ar  
    13     5     9 ar  
    14     5    20 1   
    15     6    11 ar  
    16     6    21 1   
    17     7    12 ar  
    18     7    22 1   
    19     8    12 ar  
    20     8    23 1   
    21     9    13 ar  
    22     9    24 1   
    23    10    11 ar  
    24    10    13 ar  
    25    10    25 1   
    26    12    14 1   
    27    13    14 1   
    28    14    26 1   
@<TRIPOS>SUBSTRUCTURE
     1 9XG         1 TEMP              0 ****  ****    0 ROOT
