@<TRIPOS>MOLECULE
9XH
   68    72     1     0     0
SMALL
bcc


@<TRIPOS>ATOM
      1 C1           0.0000     0.0000     0.0000 ca         1 9XH      -0.056500
      2 C2           1.3810     0.0000     0.0000 ca         1 9XH      -0.075000
      3 C3           2.0720     0.0000     1.1970 ca         1 9XH      -0.075000
      4 C4           1.3800    -0.0000     2.3930 ca         1 9XH      -0.056500
      5 C5          -0.0040     0.0000     2.3940 ca         1 9XH      -0.128800
      6 C6          -0.6940     0.0000     1.1980 ca         1 9XH      -0.128800
      7 C7          -2.1740     0.0050     1.4890 c3         1 9XH       0.111300
      8 C12         -3.5110     0.0020     5.1250 c3         1 9XH      -0.126500
      9 N13         -4.8100     0.4810     5.6160 nz         1 9XH      -0.009600
     10 C18         -2.5380    -2.7270     9.2990 c3         1 9XH       0.071000
     11 C19         -1.2370    -3.4630     9.6340 c3         1 9XH       0.128300
     12 C21         -1.2760    -4.6550     7.5220 c3         1 9XH       0.128300
     13 C23         -0.0940    -5.5880     9.4180 c3         1 9XH       0.260100
     14 C24         -0.0940    -5.6950    10.9210 ca         1 9XH      -0.123800
     15 C27         -0.0930    -5.8920    13.6800 ca         1 9XH       0.119400
     16 C30          1.0980    -5.6170    11.6190 ca         1 9XH      -0.065500
     17 C31         -0.1900    -6.9660     8.8160 ca         1 9XH      -0.123800
     18 C32         -1.4170    -7.5970     8.7320 ca         1 9XH      -0.065500
     19 C33         -1.5070    -8.8610     8.1800 ca         1 9XH      -0.130250
     20 C34         -0.3690    -9.4940     7.7100 ca         1 9XH       0.119400
     21 C36          0.8590    -8.8600     7.7960 ca         1 9XH      -0.130250
     22 C37          0.9460    -7.5940     8.3430 ca         1 9XH      -0.065500
     23 N8          -2.3420     0.0020     2.9450 n          1 9XH      -0.081800
     24 C9          -0.9970     0.0000     3.5290 c3         1 9XH       0.111300
     25 C10         -3.5090     0.0060     3.6180 c          1 9XH       0.564100
     26 O11         -4.5600     0.0130     3.0120 o          1 9XH      -0.637100
     27 C14         -3.2670    -1.4210     5.6310 c3         1 9XH      -0.128400
     28 O16         -3.2440    -0.3590     7.7400 o          1 9XH      -0.632100
     29 N17         -2.6970    -2.7000     7.8370 n          1 9XH      -0.219800
     30 N20         -1.2430    -4.7820     8.9850 n3         1 9XH      -0.536600
     31 C22         -2.5790    -3.9680     7.1000 c3         1 9XH       0.071000
     32 C25         -1.2850    -5.8650    11.6020 ca         1 9XH      -0.065500
     33 C26         -1.2860    -5.9640    12.9810 ca         1 9XH      -0.130250
     34 F28         -0.0920    -5.9880    15.0270 f          1 9XH      -0.121400
     35 C29          1.0990    -5.7160    12.9980 ca         1 9XH      -0.130250
     36 F35         -0.4550   -10.7300     7.1710 f          1 9XH      -0.121400
     37 H1          -0.5410    -0.0000    -0.9390 ha         1 9XH       0.111500
     38 H2           1.9230     0.0000    -0.9380 ha         1 9XH       0.118500
     39 H3           3.1550    -0.0000     1.1980 ha         1 9XH       0.118500
     40 H4           1.9210    -0.0000     3.3320 ha         1 9XH       0.111500
     41 H5          -2.6320    -0.8810     1.0650 h1         1 9XH       0.032950
     42 H6          -2.7250     0.6540     5.4880 hx         1 9XH       0.109700
     43 H7          -4.1250     1.1140     5.9780 hn         1 9XH       0.265800
     44 H8          -5.2380    -0.1070     6.3030 hn         1 9XH       0.265800
     45 H11         -2.4890    -1.7140     9.6780 h1         1 9XH       0.027950
     46 H12         -3.3760    -3.2490     9.7460 h1         1 9XH       0.027950
     47 H13         -0.3940    -2.8870     9.2710 h1         1 9XH       0.031450
     48 H14         -1.1610    -3.5900    10.7070 h1         1 9XH       0.031450
     49 H15         -0.4330    -4.0600     7.1930 h1         1 9XH       0.031450
     50 H16         -1.2280    -5.6400     7.0740 h1         1 9XH       0.031450
     51 H17          0.8230    -5.1140     9.0900 h1         1 9XH       0.018700
     52 H18          2.0300    -5.4790    11.0850 ha         1 9XH       0.114750
     53 H19         -2.3080    -7.1020     9.0990 ha         1 9XH       0.114750
     54 H20         -2.4680    -9.3560     8.1140 ha         1 9XH       0.124500
     55 H21          1.7500    -9.3530     7.4270 ha         1 9XH       0.124500
     56 H22          1.9070    -7.0980     8.4100 ha         1 9XH       0.114750
     57 H23         -0.8620    -0.8880     4.1340 h1         1 9XH       0.032950
     58 H24         -2.3520    -1.8060     5.1980 hc         1 9XH       0.076200
     59 H25         -4.0970    -2.0540     5.3430 hc         1 9XH       0.076200
     60 H29         -3.4210    -4.6070     7.3400 h1         1 9XH       0.027950
     61 H30         -2.5570    -3.7690     6.0360 h1         1 9XH       0.027950
     62 H31         -2.2180    -5.9210    11.0550 ha         1 9XH       0.114750
     63 H32         -2.2190    -6.0970    13.5140 ha         1 9XH       0.124500
     64 H33          2.0330    -5.6570    13.5440 ha         1 9XH       0.124500
     65 H9          -0.8610     0.8880     4.1350 h1         1 9XH       0.032950
     66 H10         -2.6260     0.8960     1.0700 h1         1 9XH       0.032950
     67 C15         -3.1450    -1.4060     7.1340 c          1 9XH       0.616100
     68 H133        -5.4000     0.8780     4.9120 hn         1 9XH       0.265800
@<TRIPOS>BOND
     1     1     2 ar  
     2     1     6 ar  
     3     1    37 1   
     4     2     3 ar  
     5     2    38 1   
     6     3     4 ar  
     7     3    39 1   
     8     4     5 ar  
     9     4    40 1   
    10     5     6 ar  
    11     5    24 1   
    12     6     7 1   
    13     7    23 1   
    14     7    41 1   
    15     7    66 1   
    16     8     9 1   
    17     8    25 1   
    18     8    27 1   
    19     8    42 1   
    20     9    43 1   
    21     9    44 1   
    22     9    68 1   
    23    10    11 1   
    24    10    29 1   
    25    10    45 1   
    26    10    46 1   
    27    11    30 1   
    28    11    47 1   
    29    11    48 1   
    30    12    30 1   
    31    12    31 1   
    32    12    49 1   
    33    12    50 1   
    34    13    14 1   
    35    13    17 1   
    36    13    30 1   
    37    13    51 1   
    38    14    16 ar  
    39    14    32 ar  
    40    15    33 ar  
    41    15    34 1   
    42    15    35 ar  
    43    16    35 ar  
    44    16    52 1   
    45    17    18 ar  
    46    17    22 ar  
    47    18    19 ar  
    48    18    53 1   
    49    19    20 ar  
    50    19    54 1   
    51    20    21 ar  
    52    20    36 1   
    53    21    22 ar  
    54    21    55 1   
    55    22    56 1   
    56    23    24 1   
    57    23    25 1   
    58    24    57 1   
    59    24    65 1   
    60    25    26 2   
    61    27    58 1   
    62    27    59 1   
    63    27    67 1   
    64    28    67 2   
    65    29    31 1   
    66    29    67 1   
    67    31    60 1   
    68    31    61 1   
    69    32    33 ar  
    70    32    62 1   
    71    33    63 1   
    72    35    64 1   
@<TRIPOS>SUBSTRUCTURE
     1 9XH         1 TEMP              0 ****  ****    0 ROOT
