@<TRIPOS>MOLECULE
molecule
   68    72     1     0     0
SMALL
bcc


@<TRIPOS>ATOM
      1 C1           0.0000     0.0000     0.0000 ca         1 9XH      -0.093500
      2 C2           1.3810     0.0000     0.0000 ca         1 9XH      -0.104500
      3 C3           2.0720     0.0000     1.1970 ca         1 9XH      -0.104500
      4 C4           1.3800    -0.0000     2.3930 ca         1 9XH      -0.093500
      5 C5          -0.0040     0.0000     2.3940 ca         1 9XH      -0.116800
      6 C6          -0.6940     0.0000     1.1980 ca         1 9XH      -0.116800
      7 C7          -2.1740     0.0050     1.4890 c3         1 9XH       0.144800
      8 C12         -3.5110     0.0020     5.1250 c3         1 9XH       0.025500
      9 N13         -4.8100     0.4810     5.6160 nz         1 9XH      -0.841600
     10 C18         -2.5380    -2.7270     9.2990 c3         1 9XH       0.112500
     11 C19         -1.2370    -3.4630     9.6340 c3         1 9XH       0.147800
     12 C21         -1.2760    -4.6550     7.5220 c3         1 9XH       0.147800
     13 C23         -0.0940    -5.5880     9.4180 c3         1 9XH       0.276100
     14 C24         -0.0940    -5.6950    10.9210 ca         1 9XH      -0.112800
     15 C27         -0.0930    -5.8920    13.6800 ca         1 9XH       0.145900
     16 C30          1.0980    -5.6170    11.6190 ca         1 9XH      -0.090250
     17 C31         -0.1900    -6.9660     8.8160 ca         1 9XH      -0.112800
     18 C32         -1.4170    -7.5970     8.7320 ca         1 9XH      -0.090250
     19 C33         -1.5070    -8.8610     8.1800 ca         1 9XH      -0.167750
     20 C34         -0.3690    -9.4940     7.7100 ca         1 9XH       0.145900
     21 C36          0.8590    -8.8600     7.7960 ca         1 9XH      -0.167750
     22 C37          0.9460    -7.5940     8.3430 ca         1 9XH      -0.090250
     23 N8          -2.3420     0.0020     2.9450 n          1 9XH      -0.456800
     24 C9          -0.9970     0.0000     3.5290 c3         1 9XH       0.144800
     25 C10         -3.5090     0.0060     3.6180 c          1 9XH       0.654100
     26 O11         -4.5600     0.0130     3.0120 o          1 9XH      -0.585100
     27 C14         -3.2670    -1.4210     5.6310 c3         1 9XH      -0.182400
     28 O16         -3.2440    -0.3590     7.7400 o          1 9XH      -0.601100
     29 N17         -2.6970    -2.7000     7.8370 n          1 9XH      -0.516800
     30 N20         -1.2430    -4.7820     8.9850 n3         1 9XH      -0.730600
     31 C22         -2.5790    -3.9680     7.1000 c3         1 9XH       0.112500
     32 C25         -1.2850    -5.8650    11.6020 ca         1 9XH      -0.090250
     33 C26         -1.2860    -5.9640    12.9810 ca         1 9XH      -0.167750
     34 F28         -0.0920    -5.9880    15.0270 f          1 9XH      -0.131900
     35 C29          1.0990    -5.7160    12.9980 ca         1 9XH      -0.167750
     36 F35         -0.4550   -10.7300     7.1710 f          1 9XH      -0.131900
     37 H1          -0.5410    -0.0000    -0.9390 ha         1 9XH       0.142000
     38 H2           1.9230     0.0000    -0.9380 ha         1 9XH       0.152000
     39 H3           3.1550    -0.0000     1.1980 ha         1 9XH       0.152000
     40 H4           1.9210    -0.0000     3.3320 ha         1 9XH       0.142000
     41 H5          -2.6320    -0.8810     1.0650 h1         1 9XH       0.066450
     42 H6          -2.7250     0.6540     5.4880 hx         1 9XH       0.132700
     43 H7          -4.1250     1.1140     5.9780 hn         1 9XH       0.489133
     44 H8          -5.2380    -0.1070     6.3030 hn         1 9XH       0.489133
     45 H11         -2.4890    -1.7140     9.6780 h1         1 9XH       0.057700
     46 H12         -3.3760    -3.2490     9.7460 h1         1 9XH       0.057700
     47 H13         -0.3940    -2.8870     9.2710 h1         1 9XH       0.056200
     48 H14         -1.1610    -3.5900    10.7070 h1         1 9XH       0.056200
     49 H15         -0.4330    -4.0600     7.1930 h1         1 9XH       0.056200
     50 H16         -1.2280    -5.6400     7.0740 h1         1 9XH       0.056200
     51 H17          0.8230    -5.1140     9.0900 h1         1 9XH       0.039700
     52 H18          2.0300    -5.4790    11.0850 ha         1 9XH       0.142000
     53 H19         -2.3080    -7.1020     9.0990 ha         1 9XH       0.142000
     54 H20         -2.4680    -9.3560     8.1140 ha         1 9XH       0.152000
     55 H21          1.7500    -9.3530     7.4270 ha         1 9XH       0.152000
     56 H22          1.9070    -7.0980     8.4100 ha         1 9XH       0.142000
     57 H23         -0.8620    -0.8880     4.1340 h1         1 9XH       0.066450
     58 H24         -2.3520    -1.8060     5.1980 hc         1 9XH       0.115700
     59 H25         -4.0970    -2.0540     5.3430 hc         1 9XH       0.115700
     60 H29         -3.4210    -4.6070     7.3400 h1         1 9XH       0.057700
     61 H30         -2.5570    -3.7690     6.0360 h1         1 9XH       0.057700
     62 H31         -2.2180    -5.9210    11.0550 ha         1 9XH       0.142000
     63 H32         -2.2190    -6.0970    13.5140 ha         1 9XH       0.152000
     64 H33          2.0330    -5.6570    13.5440 ha         1 9XH       0.152000
     65 H9          -0.8610     0.8880     4.1350 h1         1 9XH       0.066450
     66 H10         -2.6260     0.8960     1.0700 h1         1 9XH       0.066450
     67 C15         -3.1450    -1.4060     7.1340 c          1 9XH       0.654100
     68 H133        -5.4000     0.8780     4.9120 hn         1 9XH       0.489133
@<TRIPOS>BOND
     1    34    15 1
     2     3     2 ar
     3     3     4 ar
     4    15    33 ar
     5    15    35 ar
     6    33    32 ar
     7     2     1 ar
     8     4     5 ar
     9    35    16 ar
    10    19    18 ar
    11    19    20 ar
    12    18    17 ar
    13    32    14 ar
    14    28    67 2
    15    16    14 ar
    16    14    13 1
    17     1     6 ar
    18     5     6 ar
    19     5    24 1
    20    36    20 1
    21    20    21 ar
    22     6     7 1
    23    17    13 1
    24    17    22 ar
    25    13    30 1
    26    31    29 1
    27    31    12 1
    28    24    23 1
    29    29    67 1
    30    29    10 1
    31    67    27 1
    32    10    11 1
    33     7    23 1
    34    23    25 1
    35    21    22 ar
    36     8    27 1
    37     8    25 1
    38     8     9 1
    39    30    12 1
    40    30    11 1
    41    25    26 2
    42     1    37 1
    43     2    38 1
    44     3    39 1
    45     4    40 1
    46     7    41 1
    47     8    42 1
    48     9    43 1
    49     9    44 1
    50    10    45 1
    51    10    46 1
    52    11    47 1
    53    11    48 1
    54    12    49 1
    55    12    50 1
    56    13    51 1
    57    16    52 1
    58    18    53 1
    59    19    54 1
    60    21    55 1
    61    22    56 1
    62    24    57 1
    63    27    58 1
    64    27    59 1
    65    31    60 1
    66    31    61 1
    67    32    62 1
    68    33    63 1
    69    35    64 1
    70    24    65 1
    71     7    66 1
    72    68     9 1
@<TRIPOS>SUBSTRUCTURE
     1 9XH         1 TEMP              0 ****  ****    0 ROOT
