@<TRIPOS>MOLECULE
9XJ
   44    47     1     0     0
SMALL
bcc


@<TRIPOS>ATOM
      1 CAH          0.0000     0.0000     0.0000 c3         1 9XJ      -0.025400
      2 CAI          1.5310     0.0000     0.0000 c3         1 9XJ       0.149300
      3 NAJ          2.0230     0.0000     1.3840 n7         1 9XJ      -0.579200
      4 CAK          1.5890    -1.2060     2.1000 c3         1 9XJ       0.149300
      5 CAL          0.0600    -1.2420     2.1640 c3         1 9XJ      -0.025400
      6 CAG         -0.5040    -1.2420     0.7410 c3         1 9XJ      -0.074700
      7 CAF         -2.0340    -1.2170     0.7970 c3         1 9XJ      -0.002700
      8 NAE         -2.5200    -2.4610     1.3990 na         1 9XJ       0.383200
      9 NAM         -2.7440    -2.6650     2.7650 nc         1 9XJ      -0.700100
     10 C6          -2.8320    -3.5960     0.7160 ca         1 9XJ       0.352800
     11 N1          -2.8140    -3.9500    -0.5690 nb         1 9XJ      -0.682000
     12 C2          -3.1830    -5.1570    -0.9380 ca         1 9XJ       0.706900
     13 N3          -3.5880    -6.0740    -0.0770 nb         1 9XJ      -0.723000
     14 C4          -3.6420    -5.8180     1.2260 ca         1 9XJ       0.630200
     15 NAA         -4.0660    -6.7820     2.1200 nv         1 9XJ      -0.576500
     16 C5          -3.2570    -4.5420     1.6710 ca         1 9XJ      -0.543500
     17 CAN         -3.1770    -3.8820     2.9680 cd         1 9XJ       0.654200
     18 OAO         -3.4980    -4.4290     4.1700 os         1 9XJ      -0.258700
     19 CAP         -3.2770    -3.6890     5.2880 ca         1 9XJ       0.125100
     20 CAV         -3.7040    -4.1530     6.5240 ca         1 9XJ      -0.130000
     21 CAT         -3.4780    -3.3980     7.6600 ca         1 9XJ      -0.007600
     22 Cl          -4.0120    -3.9770     9.2070 cl         1 9XJ      -0.027400
     23 CAS         -2.8270    -2.1800     7.5640 ca         1 9XJ      -0.128000
     24 CAR         -2.4010    -1.7170     6.3330 ca         1 9XJ      -0.051000
     25 CAQ         -2.6200    -2.4710     5.1960 ca         1 9XJ      -0.231000
     26 H1          -0.3600    -0.0180    -1.0210 hc         1 9XJ       0.025950
     27 H2          -0.3610     0.8900     0.5010 hc         1 9XJ       0.025950
     28 H3           1.8900    -0.8860    -0.5090 h1         1 9XJ       0.006450
     29 H4           1.8900     0.8860    -0.5090 h1         1 9XJ       0.006450
     30 H5           3.0220     0.0460     1.3820 hn         1 9XJ       0.251800
     31 H7           1.9900    -1.1910     3.1070 h1         1 9XJ       0.006450
     32 H8           1.9480    -2.0840     1.5770 h1         1 9XJ       0.006450
     33 H9          -0.3000    -0.3690     2.6950 hc         1 9XJ       0.025950
     34 H10         -0.2590    -2.1410     2.6780 hc         1 9XJ       0.025950
     35 H11         -0.1710    -2.1320     0.2210 hc         1 9XJ       0.039700
     36 H12         -2.4310    -1.1210    -0.2060 h1         1 9XJ       0.043700
     37 H13         -2.3590    -0.3740     1.3960 h1         1 9XJ       0.043700
     38 H14         -3.1550    -5.4090    -1.9910 h5         1 9XJ      -0.002900
     39 H15         -3.6110    -7.6730     2.1480 hn         1 9XJ       0.282300
     40 H16         -4.8500    -6.6010     2.7160 hn         1 9XJ       0.282300
     41 H17         -4.1790    -5.1230     6.6030 ha         1 9XJ       0.123000
     42 H18         -2.6530    -1.5890     8.4550 ha         1 9XJ       0.115000
     43 H19         -1.8890    -0.7650     6.2610 ha         1 9XJ       0.106000
     44 H20         -2.2850    -2.1070     4.2320 ha         1 9XJ       0.202000
@<TRIPOS>BOND
     1     1     2 1   
     2     1     6 1   
     3     1    26 1   
     4     1    27 1   
     5     2     3 1   
     6     2    28 1   
     7     2    29 1   
     8     3     4 1   
     9     3    30 1   
    10     4     5 1   
    11     4    31 1   
    12     4    32 1   
    13     5     6 1   
    14     5    33 1   
    15     5    34 1   
    16     6     7 1   
    17     6    35 1   
    18     7     8 1   
    19     7    36 1   
    20     7    37 1   
    21     8     9 1   
    22     8    10 1   
    23     9    17 2   
    24    10    11 ar  
    25    10    16 ar  
    26    11    12 ar  
    27    12    13 ar  
    28    12    38 1   
    29    13    14 ar  
    30    14    15 1   
    31    14    16 ar  
    32    15    39 1   
    33    15    40 1   
    34    16    17 1   
    35    17    18 1   
    36    18    19 1   
    37    19    20 ar  
    38    19    25 ar  
    39    20    21 ar  
    40    20    41 1   
    41    21    22 1   
    42    21    23 ar  
    43    23    24 ar  
    44    23    42 1   
    45    24    25 ar  
    46    24    43 1   
    47    25    44 1   
@<TRIPOS>SUBSTRUCTURE
     1 9XJ         1 TEMP              0 ****  ****    0 ROOT
