@<TRIPOS>MOLECULE
molecule
   49    53     1     0     0
SMALL
bcc


@<TRIPOS>ATOM
      1 C01          0.0000     0.0000     0.0000 c3         1 9XK      -0.046800
      2 C02          1.5070     0.0000     0.0000 ca         1 9XK      -0.076300
      3 C03          2.1970     0.0000     1.1910 ca         1 9XK      -0.088000
      4 C04          3.5890     0.0000     1.1960 ca         1 9XK      -0.045100
      5 C05          4.3000     0.0010    -0.0070 ca         1 9XK       0.140400
      6 C06          3.5720     0.0020    -1.2170 ca         1 9XK      -0.072000
      7 C07          2.2010    -0.0040    -1.2020 ca         1 9XK      -0.122000
      8 N08          5.6350     0.0010     0.1720 nc         1 9XK      -0.576100
      9 C09          6.0810     0.0010     1.3810 cd         1 9XK       0.482800
     10 N10          7.4220     0.0010     1.7300 ns         1 9XK      -0.454400
     11 C11          8.3680     0.0020     0.7700 c          1 9XK       0.659100
     12 O12          8.0450     0.0020    -0.3990 o          1 9XK      -0.513100
     13 C13          9.8260     0.0020     1.1500 c3         1 9XK      -0.105300
     14 S14         10.8400     0.0020    -0.3490 ss         1 9XK      -0.054300
     15 C15         12.4490     0.0030     0.3690 cc         1 9XK       0.500800
     16 N16         12.5630     0.0030     1.6750 nd         1 9XK      -0.688300
     17 C17         13.7610     0.0030     2.2950 cd         1 9XK       0.163400
     18 C18         14.8880    -0.0030     1.5040 cc         1 9XK      -0.138600
     19 S19         16.3140    -0.0150     2.5570 ss         1 9XK      -0.208700
     20 C20         15.4340    -0.4830     4.0960 c3         1 9XK      -0.004300
     21 C21         14.0100     0.0190     3.7830 c3         1 9XK      -0.035200
     22 C22         14.7730     0.0010     0.1010 c          1 9XK       0.721700
     23 O23         15.7700    -0.0000    -0.6030 o          1 9XK      -0.606500
     24 N24         13.5410    -0.0020    -0.4500 n          1 9XK      -0.249500
     25 C25         13.3850    -0.0040    -1.8420 ca         1 9XK       0.003600
     26 C26         13.3040    -1.2070    -2.5310 ca         1 9XK      -0.095000
     27 C27         13.1500    -1.2050    -3.9030 ca         1 9XK      -0.123000
     28 C28         13.0780    -0.0080    -4.5910 ca         1 9XK      -0.107000
     29 C29         13.1590     1.1910    -3.9090 ca         1 9XK      -0.123000
     30 C30         13.3060     1.1970    -2.5350 ca         1 9XK      -0.095000
     31 S31          4.7460    -0.0000     2.5250 ss         1 9XK      -0.163100
     32 H013        -0.3610     0.2390    -0.9930 hc         1 9XK       0.046033
     33 H011        -0.3610     0.7400     0.7040 hc         1 9XK       0.046033
     34 H012        -0.3610    -0.9800     0.2890 hc         1 9XK       0.046033
     35 H031         1.6540    -0.0000     2.1290 ha         1 9XK       0.137000
     36 H061         4.1000    -0.0010    -2.1630 ha         1 9XK       0.152000
     37 H071         1.6530    -0.0140    -2.1370 ha         1 9XK       0.138000
     38 H101         7.6880     0.0030     2.6940 hn         1 9XK       0.339500
     39 H211        13.2970    -0.6440     4.2590 hc         1 9XK       0.075200
     40 H212        13.9170     1.0380     4.1380 hc         1 9XK       0.075200
     41 H261        13.3600    -2.1450    -1.9920 ha         1 9XK       0.143000
     42 H271        13.0860    -2.1430    -4.4420 ha         1 9XK       0.139000
     43 H281        12.9600    -0.0100    -5.6680 ha         1 9XK       0.135000
     44 H291        13.1000     2.1270    -4.4510 ha         1 9XK       0.139000
     45 H301        13.3700     2.1370    -2.0000 ha         1 9XK       0.143000
     46 H131        10.0460     0.8870     1.7360 h1         1 9XK       0.098700
     47 H132        10.0460    -0.8820     1.7360 h1         1 9XK       0.098700
     48 H201        15.8440     0.0540     4.9430 h1         1 9XK       0.082700
     49 H202        15.4350    -1.5590     4.2180 h1         1 9XK       0.082700
@<TRIPOS>BOND
     1     1     2 1
     2     2     3 ar
     3     2     7 ar
     4     3     4 ar
     5     4     5 ar
     6     4    31 1
     7     5     6 ar
     8     5     8 1
     9     6     7 ar
    10     8     9 2
    11     9    10 1
    12     9    31 1
    13    10    11 1
    14    11    12 2
    15    11    13 1
    16    13    14 1
    17    14    15 1
    18    15    16 2
    19    15    24 1
    20    16    17 1
    21    17    18 2
    22    17    21 1
    23    18    19 1
    24    18    22 1
    25    19    20 1
    26    20    21 1
    27    22    23 2
    28    22    24 1
    29    24    25 1
    30    25    26 ar
    31    25    30 ar
    32    26    27 ar
    33    27    28 ar
    34    28    29 ar
    35    29    30 ar
    36     1    32 1
    37     1    33 1
    38     1    34 1
    39     3    35 1
    40     6    36 1
    41     7    37 1
    42    10    38 1
    43    13    46 1
    44    13    47 1
    45    20    48 1
    46    20    49 1
    47    21    39 1
    48    21    40 1
    49    26    41 1
    50    27    42 1
    51    28    43 1
    52    29    44 1
    53    30    45 1
@<TRIPOS>SUBSTRUCTURE
     1 9XK         1 TEMP              0 ****  ****    0 ROOT
