@<TRIPOS>MOLECULE
molecule
   10     9     1     0     0
SMALL
bcc


@<TRIPOS>ATOM
      1 O1           0.0000     0.0000     0.0000 oh         1 9XN      -0.647400
      2 O4           2.1460     1.3150    -0.7590 oh         1 9XN      -0.647400
      3 P2           1.6100     0.0000     0.0000 p5         1 9XN       0.921100
      4 S3           2.2310     0.0000     1.7570 s          1 9XN      -0.380000
      5 N5           2.1700    -1.3740    -0.7940 nz         1 9XN      -0.792700
      6 H1          -0.3140     0.4390     0.7730 ho         1 9XN       0.529000
      7 H3           1.8360    -1.3740    -1.7370 hn         1 9XN       0.496467
      8 H4           3.1710    -1.3740    -0.7940 hn         1 9XN       0.496467
      9 H5           2.2600     2.0130    -0.1360 ho         1 9XN       0.529000
     10 H53          1.8180    -2.1910    -0.3360 hn         1 9XN       0.496467
@<TRIPOS>BOND
     1     2     3 1
     2     1     3 1
     3     5     3 1
     4     3     4 2
     5     1     6 1
     6     5     7 1
     7     5     8 1
     8     2     9 1
     9    10     5 1
@<TRIPOS>SUBSTRUCTURE
     1 9XN         1 TEMP              0 ****  ****    0 ROOT
