@<TRIPOS>MOLECULE
molecule
   39    41     1     0     0
SMALL
bcc


@<TRIPOS>ATOM
      1 C4           0.0000     0.0000     0.0000 c3         1 9XP       0.096700
      2 C5           1.5300     0.0000     0.0000 c3         1 9XP      -0.100100
      3 C6          -0.5110     0.0000     1.4420 c3         1 9XP      -0.100100
      4 N1           0.3170    -2.1850    -1.2640 nc         1 9XP      -0.561100
      5 C7          -0.5090     1.2500    -0.7210 c3         1 9XP      -0.100100
      6 C8          -1.8000    -1.5160    -0.8780 ca         1 9XP       0.549800
      7 N2          -0.4890    -1.1950    -0.6920 na         1 9XP      -0.014800
      8 C9          -4.1000    -1.5090    -0.8750 ca         1 9XP       0.755900
      9 C10         -3.0700    -3.2980    -1.9080 ca         1 9XP       0.791200
     10 C11         -1.8240    -2.7360    -1.5830 ca         1 9XP      -0.557500
     11 C12          1.9060    -5.3270    -3.5250 ca         1 9XP      -0.181000
     12 N3          -2.9580    -0.9450    -0.5490 nb         1 9XP      -0.803000
     13 C13          3.2560    -5.6180    -3.5550 ca         1 9XP      -0.092000
     14 C14          4.0890    -5.1440    -2.5590 ca         1 9XP      -0.153000
     15 N4          -4.1700    -2.6510    -1.5350 nb         1 9XP      -0.836000
     16 C            3.5730    -4.3780    -1.5280 ca         1 9XP       0.057400
     17 C2           1.3850    -4.5540    -2.4950 ca         1 9XP       0.176600
     18 C1           2.2220    -4.0850    -1.4920 ca         1 9XP      -0.153000
     19 C3          -0.4310    -3.1140    -1.8010 cd         1 9XP       0.626800
     20 N5          -3.1490    -4.4920    -2.5980 nv         1 9XP      -1.023500
     21 H1           1.8910    -0.8580     0.5530 hc         1 9XP       0.050700
     22 H2           1.8910     0.9090     0.4670 hc         1 9XP       0.050700
     23 H3           1.8910    -0.0500    -1.0200 hc         1 9XP       0.050700
     24 H4          -0.3780    -0.9850     1.8720 hc         1 9XP       0.050700
     25 H5          -1.5620     0.2600     1.4530 hc         1 9XP       0.050700
     26 H6           0.0460     0.7260     2.0220 hc         1 9XP       0.050700
     27 H7           0.0320     2.1180    -0.3650 hc         1 9XP       0.050700
     28 H8          -0.3540     1.1410    -1.7870 hc         1 9XP       0.050700
     29 H9          -1.5670     1.3770    -0.5210 hc         1 9XP       0.050700
     30 H10         -5.0220    -1.0170    -0.5900 h5         1 9XP       0.061100
     31 H11          1.2550    -5.6970    -4.3080 ha         1 9XP       0.131000
     32 H12          3.6620    -6.2190    -4.3600 ha         1 9XP       0.137000
     33 H13          5.1470    -5.3730    -2.5840 ha         1 9XP       0.143000
     34 H14          1.8190    -3.4840    -0.6850 ha         1 9XP       0.178000
     35 H15         -0.6310    -4.8490    -2.9410 hn         1 9XP       0.457800
     36 H16         -2.5000    -5.2270    -2.3990 hn         1 9XP       0.442800
     37 H17         -3.8880    -4.6380    -3.2570 hn         1 9XP       0.442800
     38 N            0.0200    -4.2590    -2.4620 nu         1 9XP      -0.719600
     39 Cl           4.6240    -3.7860    -0.2780 cl         1 9XP      -0.108400
@<TRIPOS>BOND
     1     3     1 1
     2     5     1 1
     3     1     7 1
     4     1     2 1
     5     7     4 1
     6     7     6 1
     7     4    19 2
     8     6    12 ar
     9     6    10 ar
    10    12     8 ar
    11    19    10 1
    12    19    38 1
    13    10     9 ar
    14     8    15 ar
    15    38    17 1
    16     9    15 ar
    17     9    20 1
    18    18    17 ar
    19    18    16 ar
    20    17    11 ar
    21    16    39 1
    22    16    14 ar
    23    11    13 ar
    24    14    13 ar
    25     2    21 1
    26     2    22 1
    27     2    23 1
    28     3    24 1
    29     3    25 1
    30     3    26 1
    31     5    27 1
    32     5    28 1
    33     5    29 1
    34     8    30 1
    35    11    31 1
    36    13    32 1
    37    14    33 1
    38    18    34 1
    39    38    35 1
    40    20    36 1
    41    20    37 1
@<TRIPOS>SUBSTRUCTURE
     1 9XP         1 TEMP              0 ****  ****    0 ROOT
