@<TRIPOS>MOLECULE
molecule
   23    23     1     0     0
SMALL
bcc


@<TRIPOS>ATOM
      1 CG           0.0000     0.0000     0.0000 ca         1 9XQ      -0.052600
      2 CD1          1.3950     0.0000     0.0000 ca         1 9XQ      -0.150000
      3 CE1          2.0840     0.0000     1.2030 ca         1 9XQ      -0.151200
      4 CZ           1.3850    -0.0020     2.4040 ca         1 9XQ      -0.097000
      5 CE2          0.0020    -0.0010     2.4040 ca         1 9XQ      -0.117000
      6 CD2         -0.6930    -0.0000     1.2130 ca         1 9XQ       0.003000
      7 NH1          5.4980     0.6630     0.2200 nz         1 9XQ      -0.756600
      8 NH2          3.5150     1.5900    -0.5080 nv         1 9XQ      -0.445100
      9 C           -0.7420     0.0070    -1.2780 c          1 9XQ       0.862200
     10 O           -2.0890     0.0120    -1.2750 o          1 9XQ      -0.745800
     11 NE3          3.4830    -0.0000     1.2090 nu         1 9XQ      -0.150300
     12 CE4          4.1720     0.7580     0.2980 c2         1 9XQ       0.330700
     13 HHD          1.9390     0.0010    -0.9370 ha         1 9XQ       0.156000
     14 HZ           1.9250    -0.0020     3.3430 ha         1 9XQ       0.141000
     15 HHE         -0.5370    -0.0020     3.3440 ha         1 9XQ       0.171000
     16 H1          -1.7770     0.0000     1.2180 ha         1 9XQ       0.209000
     17 HH12         5.9170     1.4420     0.6880 hn         1 9XQ       0.493800
     18 HH11         5.7980    -0.1880     0.6540 hn         1 9XQ       0.493800
     19 HH21         2.5180     1.6620    -0.4490 hn         1 9XQ       0.362200
     20 H2           3.9810    -0.5910     1.8460 hn         1 9XQ       0.331700
     21 OXT         -0.1370     0.0060    -2.3310 o          1 9XQ      -0.745800
     22 HH22         4.0170     2.1440    -1.1730 hn         1 9XQ       0.362200
     23 HH13         5.7760     0.6620    -0.7420 hn         1 9XQ       0.493800
@<TRIPOS>BOND
     1     8    12 2
     2    12    11 1
     3    12     7 1
     4    10     9 1
     5    11     3 1
     6     2     3 ar
     7     2     1 ar
     8     9     1 1
     9     3     4 ar
    10     1     6 ar
    11     4     5 ar
    12     6     5 ar
    13     2    13 1
    14     4    14 1
    15     5    15 1
    16     6    16 1
    17     7    17 1
    18     7    18 1
    19     8    19 1
    20    11    20 1
    21     9    21 1
    22     8    22 1
    23    23     7 1
@<TRIPOS>SUBSTRUCTURE
     1 9XQ         1 TEMP              0 ****  ****    0 ROOT
