@<TRIPOS>MOLECULE
9XQ
   23    23     1     0     0
SMALL
bcc


@<TRIPOS>ATOM
      1 CG           0.0000     0.0000     0.0000 ca         1 9XQ      -0.071600
      2 CD1          1.3950     0.0000     0.0000 ca         1 9XQ      -0.106000
      3 CE1          2.0840     0.0000     1.2030 ca         1 9XQ      -0.330200
      4 CZ           1.3850    -0.0020     2.4040 ca         1 9XQ      -0.047000
      5 CE2          0.0020    -0.0010     2.4040 ca         1 9XQ      -0.090000
      6 CD2         -0.6930    -0.0000     1.2130 ca         1 9XQ       0.056000
      7 NH1          5.4980     0.6630     0.2200 nz         1 9XQ       0.236400
      8 NH2          3.5150     1.5900    -0.5080 nv         1 9XQ       0.092900
      9 C           -0.7420     0.0070    -1.2780 c          1 9XQ       0.939200
     10 O           -2.0890     0.0120    -1.2750 o          1 9XQ      -0.723800
     11 NE3          3.4830    -0.0000     1.2090 nu         1 9XQ       0.424700
     12 CE4          4.1720     0.7580     0.2980 c2         1 9XQ      -0.340300
     13 HHD          1.9390     0.0010    -0.9370 ha         1 9XQ       0.130000
     14 HZ           1.9250    -0.0020     3.3430 ha         1 9XQ       0.111000
     15 HHE         -0.5370    -0.0020     3.3440 ha         1 9XQ       0.134000
     16 H1          -1.7770     0.0000     1.2180 ha         1 9XQ       0.160000
     17 HH12         5.7980    -0.1880     0.6540 hn         1 9XQ       0.220467
     18 HH11         5.9170     1.4420     0.6880 hn         1 9XQ       0.220467
     19 HH21         4.0180     2.1440    -1.1730 hn         1 9XQ       0.175200
     20 H2           3.9810    -0.5870     1.8490 hn         1 9XQ       0.136700
     21 OXT         -0.1370     0.0060    -2.3310 o          1 9XQ      -0.723800
     22 HH22         2.5180     1.6620    -0.4490 hn         1 9XQ       0.175200
     23 HH13         5.7760     0.6620    -0.7420 hn         1 9XQ       0.220467
@<TRIPOS>BOND
     1     1     2 ar  
     2     1     6 ar  
     3     1     9 1   
     4     2     3 ar  
     5     2    13 1   
     6     3     4 ar  
     7     3    11 1   
     8     4     5 ar  
     9     4    14 1   
    10     5     6 ar  
    11     5    15 1   
    12     6    16 1   
    13     7    12 1   
    14     7    17 1   
    15     7    18 1   
    16     7    23 1   
    17     8    12 2   
    18     8    19 1   
    19     8    22 1   
    20     9    10 1   
    21     9    21 1   
    22    11    12 1   
    23    11    20 1   
@<TRIPOS>SUBSTRUCTURE
     1 9XQ         1 TEMP              0 ****  ****    0 ROOT
