@<TRIPOS>MOLECULE
9XV
   40    42     1     0     0
SMALL
bcc


@<TRIPOS>ATOM
      1 C4           0.0000     0.0000     0.0000 ca         1 9XV       0.614200
      2 C5           1.4080     0.0000     0.0000 ca         1 9XV      -0.529500
      3 C6           2.0750     0.0000     1.2400 ca         1 9XV       0.332800
      4 N1           1.3510    -0.0000     2.3590 nb         1 9XV      -0.672000
      5 N3          -0.6320    -0.0010     1.1680 nb         1 9XV      -0.721000
      6 CAJ          5.8400     0.0010     1.2320 c3         1 9XV      -0.012100
      7 CAK          4.3810    -1.2500     2.8280 c3         1 9XV      -0.012100
      8 CAL          4.3810     1.2480     2.8290 c3         1 9XV      -0.012100
      9 NAH          3.4100     0.0000     0.9640 na         1 9XV       0.394200
     10 NAG          3.5690     0.0010    -0.4280 nc         1 9XV      -0.626100
     11 C2           0.0370    -0.0010     2.3080 ca         1 9XV       0.691900
     12 NAR         -0.7080     0.0050    -1.1870 nv         1 9XV      -0.588500
     13 CAF          2.4010     0.0010    -1.0040 cd         1 9XV       0.424900
     14 CAE          2.1520     0.0020    -2.4890 c3         1 9XV       0.033600
     15 CAD          2.2070     1.4160    -3.0080 ca         1 9XV      -0.080300
     16 CAC          3.4070     1.9450    -3.4420 ca         1 9XV      -0.085000
     17 CAB          3.4580     3.2430    -3.9190 ca         1 9XV      -0.032600
     18 Cl           4.9650     3.9100    -4.4650 cl         1 9XV      -0.027400
     19 CAV          2.3070     4.0110    -3.9590 ca         1 9XV      -0.100000
     20 CAU          1.1080     3.4790    -3.5240 ca         1 9XV      -0.089000
     21 CAT          1.0560     2.1810    -3.0540 ca         1 9XV      -0.103000
     22 H1           5.8970     0.8590     0.5720 hc         1 9XV       0.019700
     23 H2           6.6390     0.0530     1.9610 hc         1 9XV       0.019700
     24 H3           5.9400    -0.9080     0.6510 hc         1 9XV       0.019700
     25 H4           5.3290    -1.4310     3.3210 hc         1 9XV       0.019700
     26 H5           4.1090    -2.1180     2.2400 hc         1 9XV       0.019700
     27 H6           3.6170    -1.0640     3.5730 hc         1 9XV       0.019700
     28 H7           4.2210     2.1170     2.2030 hc         1 9XV       0.019700
     29 H8           5.3380     1.3350     3.3300 hc         1 9XV       0.019700
     30 H9           3.5910     1.1850     3.5680 hc         1 9XV       0.019700
     31 H10         -0.5190    -0.0020     3.2370 h5         1 9XV      -0.004900
     32 H11         -0.5430    -0.7080    -1.8690 hn         1 9XV       0.280800
     33 H12         -1.4360     0.6760    -1.3310 hn         1 9XV       0.280800
     34 H13          1.1740    -0.4190    -2.6920 hc         1 9XV       0.028200
     35 H14          2.9100    -0.5940    -2.9830 hc         1 9XV       0.028200
     36 H15          4.3030     1.3370    -3.4310 ha         1 9XV       0.124000
     37 H16          2.3470     5.0280    -4.3300 ha         1 9XV       0.114000
     38 H17          0.2060     4.0790    -3.5580 ha         1 9XV       0.105000
     39 H18          0.1150     1.7650    -2.7140 ha         1 9XV       0.108000
     40 CAI          4.4910     0.0000     1.9520 c3         1 9XV      -0.044300
@<TRIPOS>BOND
     1     1     2 ar  
     2     1     5 ar  
     3     1    12 1   
     4     2     3 ar  
     5     2    13 1   
     6     3     4 ar  
     7     3     9 1   
     8     4    11 ar  
     9     5    11 ar  
    10     6    22 1   
    11     6    23 1   
    12     6    24 1   
    13     6    40 1   
    14     7    25 1   
    15     7    26 1   
    16     7    27 1   
    17     7    40 1   
    18     8    28 1   
    19     8    29 1   
    20     8    30 1   
    21     8    40 1   
    22     9    10 1   
    23     9    40 1   
    24    10    13 2   
    25    11    31 1   
    26    12    32 1   
    27    12    33 1   
    28    13    14 1   
    29    14    15 1   
    30    14    34 1   
    31    14    35 1   
    32    15    16 ar  
    33    15    21 ar  
    34    16    17 ar  
    35    16    36 1   
    36    17    18 1   
    37    17    19 ar  
    38    19    20 ar  
    39    19    37 1   
    40    20    21 ar  
    41    20    38 1   
    42    21    39 1   
@<TRIPOS>SUBSTRUCTURE
     1 9XV         1 TEMP              0 ****  ****    0 ROOT
