@<TRIPOS>MOLECULE
molecule
   40    42     1     0     0
SMALL
bcc


@<TRIPOS>ATOM
      1 C4           0.0000     0.0000     0.0000 ca         1 9XV       0.785200
      2 C5           1.4080     0.0000     0.0000 ca         1 9XV      -0.516500
      3 C6           2.0750     0.0000     1.2400 ca         1 9XV       0.522800
      4 N1           1.3510    -0.0000     2.3590 nb         1 9XV      -0.789000
      5 N3          -0.6320    -0.0010     1.1680 nb         1 9XV      -0.820000
      6 CAJ          5.8400     0.0010     1.2320 c3         1 9XV      -0.099433
      7 CAK          4.3810    -1.2500     2.8280 c3         1 9XV      -0.099433
      8 CAL          4.3810     1.2480     2.8290 c3         1 9XV      -0.099433
      9 NAH          3.4100     0.0000     0.9640 na         1 9XV      -0.016800
     10 NAG          3.5690     0.0010    -0.4280 nc         1 9XV      -0.499100
     11 C2           0.0370    -0.0010     2.3080 ca         1 9XV       0.740900
     12 NAR         -0.7080     0.0050    -1.1870 nv         1 9XV      -1.045500
     13 CAF          2.4010     0.0010    -1.0040 cd         1 9XV       0.397900
     14 CAE          2.1520     0.0020    -2.4890 c3         1 9XV      -0.029400
     15 CAD          2.2070     1.4160    -3.0080 ca         1 9XV      -0.075300
     16 CAC          3.4070     1.9450    -3.4420 ca         1 9XV      -0.107000
     17 CAB          3.4580     3.2430    -3.9190 ca         1 9XV       0.029400
     18 Cl           4.9650     3.9100    -4.4650 cl         1 9XV      -0.109400
     19 CAV          2.3070     4.0110    -3.9590 ca         1 9XV      -0.120000
     20 CAU          1.1080     3.4790    -3.5240 ca         1 9XV      -0.121000
     21 CAT          1.0560     2.1810    -3.0540 ca         1 9XV      -0.119000
     22 H1           5.8970     0.8590     0.5720 hc         1 9XV       0.050700
     23 H2           6.6390     0.0530     1.9610 hc         1 9XV       0.050700
     24 H3           5.9400    -0.9080     0.6510 hc         1 9XV       0.050700
     25 H4           5.3290    -1.4310     3.3210 hc         1 9XV       0.050700
     26 H5           4.1090    -2.1180     2.2400 hc         1 9XV       0.050700
     27 H6           3.6170    -1.0640     3.5730 hc         1 9XV       0.050700
     28 H7           4.2210     2.1170     2.2030 hc         1 9XV       0.050700
     29 H8           5.3380     1.3350     3.3300 hc         1 9XV       0.050700
     30 H9           3.5910     1.1850     3.5680 hc         1 9XV       0.050700
     31 H10         -0.5190    -0.0020     3.2370 h5         1 9XV       0.060100
     32 H11         -0.5430    -0.7080    -1.8690 hn         1 9XV       0.442800
     33 H12         -1.4360     0.6760    -1.3310 hn         1 9XV       0.442800
     34 H13          1.1740    -0.4190    -2.6920 hc         1 9XV       0.063200
     35 H14          2.9100    -0.5940    -2.9830 hc         1 9XV       0.063200
     36 H15          4.3030     1.3370    -3.4310 ha         1 9XV       0.150000
     37 H16          2.3470     5.0280    -4.3300 ha         1 9XV       0.144000
     38 H17          0.2060     4.0790    -3.5580 ha         1 9XV       0.136000
     39 H18          0.1150     1.7650    -2.7140 ha         1 9XV       0.136000
     40 CAI          4.4910     0.0000     1.9520 c3         1 9XV       0.095700
@<TRIPOS>BOND
     1     6    40 1
     2     7    40 1
     3    40     9 1
     4    40     8 1
     5     9    10 1
     6     9     3 1
     7    10    13 2
     8     3     4 ar
     9     3     2 ar
    10     4    11 ar
    11    14    13 1
    12    14    15 1
    13     2    13 1
    14     2     1 ar
    15    11     5 ar
    16     1     5 ar
    17     1    12 1
    18    15    16 ar
    19    15    21 ar
    20    16    17 ar
    21    21    20 ar
    22    17    18 1
    23    17    19 ar
    24    20    19 ar
    25     6    22 1
    26     6    23 1
    27     6    24 1
    28     7    25 1
    29     7    26 1
    30     7    27 1
    31     8    28 1
    32     8    29 1
    33     8    30 1
    34    11    31 1
    35    12    32 1
    36    12    33 1
    37    14    34 1
    38    14    35 1
    39    16    36 1
    40    19    37 1
    41    20    38 1
    42    21    39 1
@<TRIPOS>SUBSTRUCTURE
     1 9XV         1 TEMP              0 ****  ****    0 ROOT
