@<TRIPOS>MOLECULE
9XW
   54    57     1     0     0
SMALL
bcc


@<TRIPOS>ATOM
      1 C13          0.0000     0.0000     0.0000 ca         1 9XW       0.036900
      2 C15          1.1070     0.0020    -2.2390 cc         1 9XW       0.293800
      3 C17          2.7970     0.0030    -3.8990 c          1 9XW       0.523100
      4 C20          5.0680     0.5090    -5.0990 c3         1 9XW       0.041500
      5 C21          5.3030     1.7810    -5.9180 c3         1 9XW      -0.048900
      6 C22          4.4680     1.7190    -7.1990 c3         1 9XW       0.164800
      7 C26          2.7210     0.3710    -6.0300 c3         1 9XW       0.041500
      8 C28          1.3960     0.0000     0.0000 ca         1 9XW       0.065400
      9 C01          4.0480     0.0000     2.5670 c3         1 9XW       0.236700
     10 C03          2.0690     0.0000     1.2460 ca         1 9XW       0.207100
     11 C04          1.3580    -0.0020     2.4230 ca         1 9XW      -0.218000
     12 C05         -0.0300    -0.0030     2.4110 ca         1 9XW      -0.084000
     13 C06         -0.7080    -0.0010     1.2060 ca         1 9XW       0.012600
     14 C08         -2.6410    -1.2320     1.7980 c3         1 9XW       0.105300
     15 C09         -4.1690    -1.2190     1.7100 c3         1 9XW       0.213400
     16 C11         -4.1730     1.1750     1.7860 c3         1 9XW       0.213400
     17 C12         -2.6430     1.1870     1.8760 c3         1 9XW       0.105300
     18 C23          4.7270     2.9730    -8.0380 c3         1 9XW      -0.035100
     19 C25          2.9820     1.6450    -6.8390 c3         1 9XW      -0.048900
     20 N07         -2.1090    -0.0020     1.1940 nh         1 9XW      -0.392000
     21 N16          1.4890     0.0030    -3.5730 ns         1 9XW       0.038600
     22 N19          3.6250     0.3530    -4.8710 n          1 9XW      -0.076800
     23 N27          1.9210     0.0010    -1.2410 nd         1 9XW      -0.407100
     24 O02          3.4300     0.0010     1.2780 os         1 9XW      -0.271900
     25 O10         -4.6690    -0.0420     2.3500 os         1 9XW      -0.413600
     26 O18          3.6400    -0.0910    -3.0290 o          1 9XW      -0.703100
     27 S14         -0.5570     0.0060    -1.6720 ss         1 9XW      -0.219100
     28 H1           5.5780     0.5910    -4.1470 h1         1 9XW       0.030200
     29 H2           5.4430    -0.3490    -5.6450 h1         1 9XW       0.030200
     30 H3           6.3530     1.8550    -6.1750 hc         1 9XW       0.026950
     31 H4           5.0060     2.6450    -5.3360 hc         1 9XW       0.026950
     32 H5           1.6930     0.3640    -5.6880 h1         1 9XW       0.030200
     33 H6           2.9100    -0.4970    -6.6500 h1         1 9XW       0.030200
     34 H7           5.1250     0.0020     2.4510 h1         1 9XW      -0.001967
     35 H8           3.7420     0.8840     3.1140 h1         1 9XW      -0.001967
     36 H9           3.7440    -0.8850     3.1120 h1         1 9XW      -0.001967
     37 H10          1.8860    -0.0040     3.3690 ha         1 9XW       0.126000
     38 H11         -0.5810    -0.0050     3.3430 ha         1 9XW       0.115000
     39 H12         -2.2560    -2.0920     1.2630 h1         1 9XW       0.021450
     40 H13         -2.3400    -1.2830     2.8380 h1         1 9XW       0.021450
     41 H14         -4.4710    -1.2190     0.6700 h1         1 9XW       0.013200
     42 H15         -4.5670    -2.0960     2.2070 h1         1 9XW       0.013200
     43 H16         -4.5730     2.0170     2.3380 h1         1 9XW       0.013200
     44 H17         -4.4740     1.2410     0.7480 h1         1 9XW       0.013200
     45 H18         -2.3420     1.1720     2.9160 h1         1 9XW       0.021450
     46 H19         -2.2610     2.0800     1.3960 h1         1 9XW       0.021450
     47 H20          4.4480     3.8520    -7.4690 hc         1 9XW       0.013367
     48 H21          5.7780     3.0270    -8.2930 hc         1 9XW       0.013367
     49 H22          4.1370     2.9280    -8.9450 hc         1 9XW       0.013367
     50 H23          2.3920     1.6230    -7.7460 hc         1 9XW       0.026950
     51 H24          2.7120     2.5100    -6.2460 hc         1 9XW       0.026950
     52 H25          0.7940    -0.0380    -4.2920 hn         1 9XW       0.167500
     53 O24          4.8340     0.5600    -7.9510 oh         1 9XW      -0.590800
     54 H26          5.1600     0.8230    -8.7960 ho         1 9XW       0.396000
@<TRIPOS>BOND
     1     1     8 ar  
     2     1    13 ar  
     3     1    27 1   
     4     2    21 1   
     5     2    23 2   
     6     2    27 1   
     7     3    21 1   
     8     3    22 1   
     9     3    26 2   
    10     4     5 1   
    11     4    22 1   
    12     4    28 1   
    13     4    29 1   
    14     5     6 1   
    15     5    30 1   
    16     5    31 1   
    17     6    18 1   
    18     6    19 1   
    19     6    53 1   
    20     7    19 1   
    21     7    22 1   
    22     7    32 1   
    23     7    33 1   
    24     8    10 ar  
    25     8    23 1   
    26     9    24 1   
    27     9    34 1   
    28     9    35 1   
    29     9    36 1   
    30    10    11 ar  
    31    10    24 1   
    32    11    12 ar  
    33    11    37 1   
    34    12    13 ar  
    35    12    38 1   
    36    13    20 1   
    37    14    15 1   
    38    14    20 1   
    39    14    39 1   
    40    14    40 1   
    41    15    25 1   
    42    15    41 1   
    43    15    42 1   
    44    16    17 1   
    45    16    25 1   
    46    16    43 1   
    47    16    44 1   
    48    17    20 1   
    49    17    45 1   
    50    17    46 1   
    51    18    47 1   
    52    18    48 1   
    53    18    49 1   
    54    19    50 1   
    55    19    51 1   
    56    21    52 1   
    57    53    54 1   
@<TRIPOS>SUBSTRUCTURE
     1 9XW         1 TEMP              0 ****  ****    0 ROOT
