@<TRIPOS>MOLECULE
molecule
  116   115     1     0     0
SMALL
bcc


@<TRIPOS>ATOM
      1 C21          0.0000     0.0000     0.0000 c3         1 9XX      -0.083400
      2 C23         -2.0390    -0.0000     1.4430 c3         1 9XX      -0.082400
      3 C6           7.2690    -0.0690   -17.3260 c3         1 9XX      -0.081400
      4 C7           7.5700     0.6650   -16.0170 c3         1 9XX      -0.081400
      5 C8           6.9670    -0.1130   -14.8470 c3         1 9XX      -0.081400
      6 C11          6.9660     0.5760   -11.0580 c3         1 9XX      -0.079400
      7 C13          6.6630     0.5310    -8.5780 c3         1 9XX      -0.072400
      8 C14          6.0590    -0.2470    -7.4070 c3         1 9XX      -0.126400
      9 C15          6.3560     0.4760    -6.1190 c          1 9XX       0.630100
     10 C16          6.2430     0.7220    -3.7500 c3         1 9XX       0.150400
     11 C17          5.6680     0.0000    -2.5300 c3         1 9XX       0.147100
     12 O            5.9210    -0.0270    -4.9520 os         1 9XX      -0.423900
     13 C10          6.6640    -0.1580   -12.3660 c3         1 9XX      -0.082400
     14 C12          6.3620    -0.2020    -9.8870 c3         1 9XX      -0.084400
     15 C18          3.5470    -0.0000    -1.4440 c          1 9XX       0.630100
     16 C19          2.0400     0.0010    -1.4430 c3         1 9XX      -0.126400
     17 C20          1.5300     0.0000     0.0000 c3         1 9XX      -0.072400
     18 C22         -0.5100     0.0000     1.4420 c3         1 9XX      -0.080400
     19 C24         -2.5490    -0.0010     2.8850 c3         1 9XX      -0.082400
     20 C25         -4.0790    -0.0000     2.8860 c3         1 9XX      -0.083400
     21 C26         -4.5890    -0.0010     4.3280 c3         1 9XX      -0.076400
     22 C27         -6.1190    -0.0010     4.3280 c3         1 9XX      -0.074700
     23 C28         -6.6290     0.1240     5.7660 c3         1 9XX      -0.077400
     24 C29         -8.1530     0.2500     5.7570 c3         1 9XX      -0.083400
     25 C30         -8.6630     0.3750     7.1940 c3         1 9XX      -0.082400
     26 C36         -6.6290    -1.3070     3.7180 c3         1 9XX      -0.092100
     27 C37          6.1770    -1.4420    -2.5040 c3         1 9XX      -0.111100
     28 C5           7.8730     0.7090   -18.4970 c3         1 9XX      -0.082400
     29 C9           7.2680     0.6200   -13.5380 c3         1 9XX      -0.082400
     30 O1           4.2180     0.0010    -2.6060 os         1 9XX      -0.419900
     31 O2           4.1510    -0.0000    -0.3970 o          1 9XX      -0.555000
     32 O6           6.9850     1.5060    -6.1350 o          1 9XX      -0.552000
     33 H1          -0.3610    -0.8850    -0.5110 hc         1 9XX       0.040700
     34 H2          -0.3610     0.8850    -0.5110 hc         1 9XX       0.040700
     35 H3          -2.4010     0.8850     0.9330 hc         1 9XX       0.040700
     36 H4          -2.4010    -0.8840     0.9320 hc         1 9XX       0.040700
     37 H5           6.1970    -0.1460   -17.4590 hc         1 9XX       0.040700
     38 H6           7.7010    -1.0620   -17.2910 hc         1 9XX       0.040700
     39 H7           8.6430     0.7420   -15.8850 hc         1 9XX       0.041700
     40 H8           7.1380     1.6580   -16.0520 hc         1 9XX       0.041700
     41 H9           5.8950    -0.1910   -14.9790 hc         1 9XX       0.040700
     42 H10          7.3990    -1.1060   -14.8120 hc         1 9XX       0.040700
     43 H11          8.0380     0.6530   -10.9260 hc         1 9XX       0.044700
     44 H12          6.5340     1.5690   -11.0930 hc         1 9XX       0.044700
     45 H13          7.7350     0.6090    -8.4450 hc         1 9XX       0.058700
     46 H14          6.2310     1.5240    -8.6130 hc         1 9XX       0.058700
     47 H15          4.9870    -0.3240    -7.5390 hc         1 9XX       0.071700
     48 H16          6.4910    -1.2400    -7.3720 hc         1 9XX       0.071700
     49 H17          7.3190     0.7990    -3.6500 h1         1 9XX       0.061700
     50 H18          5.8150     1.7150    -3.8180 h1         1 9XX       0.061700
     51 H19          5.9820     0.5100    -1.6280 h1         1 9XX       0.083700
     52 H20          7.0960    -1.1510   -12.3320 hc         1 9XX       0.040700
     53 H21          5.5920    -0.2350   -12.4990 hc         1 9XX       0.040700
     54 H22          5.2900    -0.2800   -10.0190 hc         1 9XX       0.040700
     55 H23          6.7940    -1.1950    -9.8520 hc         1 9XX       0.040700
     56 H24          1.6770    -0.8830    -1.9540 hc         1 9XX       0.072200
     57 H25          1.6790     0.8860    -1.9520 hc         1 9XX       0.072200
     58 H26          1.8920    -0.8850     0.5100 hc         1 9XX       0.058700
     59 H27          1.8920     0.8840     0.5110 hc         1 9XX       0.058700
     60 H28         -0.1490    -0.8840     1.9530 hc         1 9XX       0.044200
     61 H29         -0.1490     0.8850     1.9530 hc         1 9XX       0.044200
     62 H30         -2.1890    -0.8860     3.3950 hc         1 9XX       0.041700
     63 H31         -2.1880     0.8830     3.3970 hc         1 9XX       0.041700
     64 H32         -4.4410    -0.8840     2.3740 hc         1 9XX       0.042200
     65 H33         -4.4400     0.8850     2.3760 hc         1 9XX       0.042200
     66 H34         -4.2280    -0.8860     4.8380 hc         1 9XX       0.041700
     67 H35         -4.2280     0.8830     4.8390 hc         1 9XX       0.041700
     68 H36         -6.4800     0.8360     3.7430 hc         1 9XX       0.049700
     69 H37         -6.1960     1.0040     6.2270 hc         1 9XX       0.041700
     70 H38         -6.3420    -0.7560     6.3290 hc         1 9XX       0.041700
     71 H39         -8.5850    -0.6290     5.2950 hc         1 9XX       0.042200
     72 H40         -8.4390     1.1310     5.1950 hc         1 9XX       0.042200
     73 H41         -8.3770    -0.5060     7.7560 hc         1 9XX       0.040700
     74 H42         -8.2310     1.2540     7.6560 hc         1 9XX       0.040700
     75 H44         -5.7870    -1.9250     3.4300 hc         1 9XX       0.035033
     76 H45         -7.2310    -1.0870     2.8440 hc         1 9XX       0.035033
     77 H46         -7.2310    -1.8360     4.4470 hc         1 9XX       0.035033
     78 H47          5.6270    -2.0320    -3.2280 hc         1 9XX       0.051367
     79 H48          6.0330    -1.8580    -1.5150 hc         1 9XX       0.051367
     80 H49          7.2310    -1.4570    -2.7530 hc         1 9XX       0.051367
     81 H50          7.4410     1.7020   -18.5320 hc         1 9XX       0.040700
     82 H51          8.9460     0.7870   -18.3650 hc         1 9XX       0.040700
     83 H53          8.3400     0.6980   -13.4050 hc         1 9XX       0.041700
     84 H54          6.8360     1.6130   -13.5720 hc         1 9XX       0.041700
     85 C4           7.5730    -0.0230   -19.8050 c3         1 9XX      -0.082400
     86 C3           8.1750     0.7550   -20.9770 c3         1 9XX      -0.082400
     87 C2           7.8750     0.0210   -22.2850 c3         1 9XX      -0.081400
     88 C1           8.4780     0.7990   -23.4570 c3         1 9XX      -0.084400
     89 C31        -10.1880     0.5010     7.1850 c3         1 9XX      -0.081400
     90 C32        -10.6980     0.6260     8.6220 c3         1 9XX      -0.082400
     91 C33        -12.2230     0.7520     8.6140 c3         1 9XX      -0.081400
     92 C34        -12.7320     0.8760    10.0500 c3         1 9XX      -0.084400
     93 C35        -14.2570     1.0030    10.0420 c3         1 9XX      -0.092100
     94 H43          6.5000    -0.1010   -19.9370 hc         1 9XX       0.040700
     95 H52          8.0050    -1.0160   -19.7700 hc         1 9XX       0.040700
     96 H55          7.7430     1.7470   -21.0120 hc         1 9XX       0.040700
     97 H56          9.2480     0.8330   -20.8440 hc         1 9XX       0.040700
     98 H57          6.8030    -0.0570   -22.4180 hc         1 9XX       0.040700
     99 H58          8.3080    -0.9710   -22.2500 hc         1 9XX       0.040700
    100 H59          9.5510     0.8770   -23.3250 hc         1 9XX       0.039700
    101 H60          8.0460     1.7920   -23.4920 hc         1 9XX       0.039700
    102 H62        -10.4740     1.3810     6.6220 hc         1 9XX       0.040700
    103 H63        -10.6200    -0.3790     6.7240 hc         1 9XX       0.040700
    104 H64        -10.2650     1.5060     9.0830 hc         1 9XX       0.040700
    105 H65        -10.4110    -0.2540     9.1850 hc         1 9XX       0.040700
    106 H66        -12.6550    -0.1270     8.1520 hc         1 9XX       0.040700
    107 H67        -12.5090     1.6330     8.0520 hc         1 9XX       0.040700
    108 H68        -12.4460    -0.0040    10.6130 hc         1 9XX       0.039700
    109 H69        -12.3000     1.7560    10.5120 hc         1 9XX       0.039700
    110 H70        -14.6890     0.1340     9.5590 hc         1 9XX       0.032367
    111 H71        -14.5430     1.8960     9.5010 hc         1 9XX       0.032367
    112 H72        -14.6200     1.0660    11.0610 hc         1 9XX       0.032367
    113 C            8.1780     0.0660   -24.7650 c3         1 9XX      -0.092100
    114 H61          8.6200     0.6070   -25.5920 hc         1 9XX       0.032367
    115 H73          8.5950    -0.9330   -24.7230 hc         1 9XX       0.032367
    116 H74          7.1050     0.0040   -24.9060 hc         1 9XX       0.032367
@<TRIPOS>BOND
     1    26    22 1
     2    25    24 1
     3    23    22 1
     4    23    24 1
     5    22    21 1
     6    21    20 1
     7    20    19 1
     8    28     3 1
     9     3     4 1
    10     5     4 1
    11     5    29 1
    12    19     2 1
    13    29    13 1
    14     2    18 1
    15    13     6 1
    16     6    14 1
    17    18     1 1
    18    14     7 1
    19     1    17 1
    20     7     8 1
    21    17    16 1
    22    16    15 1
    23     8     9 1
    24     9    32 2
    25     9    12 1
    26    15    30 1
    27    15    31 2
    28    11    30 1
    29    11    10 1
    30    11    27 1
    31    12    10 1
    32     1    33 1
    33     1    34 1
    34     2    35 1
    35     2    36 1
    36     3    37 1
    37     3    38 1
    38     4    39 1
    39     4    40 1
    40     5    41 1
    41     5    42 1
    42     6    43 1
    43     6    44 1
    44     7    45 1
    45     7    46 1
    46     8    47 1
    47     8    48 1
    48    10    49 1
    49    10    50 1
    50    11    51 1
    51    13    52 1
    52    13    53 1
    53    14    54 1
    54    14    55 1
    55    16    56 1
    56    16    57 1
    57    17    58 1
    58    17    59 1
    59    18    60 1
    60    18    61 1
    61    19    62 1
    62    19    63 1
    63    20    64 1
    64    20    65 1
    65    21    66 1
    66    21    67 1
    67    22    68 1
    68    23    69 1
    69    23    70 1
    70    24    71 1
    71    24    72 1
    72    25    73 1
    73    25    74 1
    74    26    75 1
    75    26    76 1
    76    26    77 1
    77    27    78 1
    78    27    79 1
    79    27    80 1
    80    28    81 1
    81    28    82 1
    82    29    83 1
    83    29    84 1
    84    28    85 1
    85    85    86 1
    86    86    87 1
    87    87    88 1
    88    25    89 1
    89    89    90 1
    90    90    91 1
    91    91    92 1
    92    92    93 1
    93    85    94 1
    94    85    95 1
    95    86    96 1
    96    86    97 1
    97    87    98 1
    98    87    99 1
    99    88   100 1
   100    88   101 1
   101    89   102 1
   102    89   103 1
   103    90   104 1
   104    90   105 1
   105    91   106 1
   106    91   107 1
   107    92   108 1
   108    92   109 1
   109    93   110 1
   110    93   111 1
   111    93   112 1
   112    88   113 1
   113   113   114 1
   114   113   115 1
   115   113   116 1
@<TRIPOS>SUBSTRUCTURE
     1 9XX         1 TEMP              0 ****  ****    0 ROOT
