@<TRIPOS>MOLECULE
9XY
   55    57     1     0     0
SMALL
bcc


@<TRIPOS>ATOM
      1 CBC          0.0000     0.0000     0.0000 c3         1 9XY       0.178100
      2 NBB          1.4690     0.0000     0.0000 n7         1 9XY      -0.574200
      3 CBA          1.9960     0.0000     1.3710 c3         1 9XY       0.136800
      4 CAZ          3.5250     0.0010     1.3310 c3         1 9XY       0.203400
      5 OAY          3.9860     1.2210     0.7480 os         1 9XY      -0.287900
      6 CAN          5.3300     1.3830     0.6370 ca         1 9XY       0.153100
      7 CAM          6.1870     0.3820     1.0750 ca         1 9XY      -0.177500
      8 CAL          7.5510     0.5430     0.9640 ca         1 9XY      -0.049500
      9 CAO          5.8440     2.5470     0.0800 ca         1 9XY      -0.177500
     10 CAP          7.2080     2.7150    -0.0350 ca         1 9XY      -0.049500
     11 CAI          8.0720     1.7130     0.4100 ca         1 9XY      -0.083800
     12 CAH          9.5360     1.8890     0.2900 ce         1 9XY      -0.005400
     13 CAE         10.3730     1.9760     1.5070 ca         1 9XY      -0.046800
     14 CAD         10.9840     3.1830     1.8510 ca         1 9XY      -0.077500
     15 CAC         11.7620     3.2610     2.9860 ca         1 9XY      -0.136500
     16 CAB         11.9410     2.1400     3.7860 ca         1 9XY       0.120100
     17 OAG         12.7090     2.2190     4.9040 oh         1 9XY      -0.500100
     18 CAA         11.3340     0.9360     3.4470 ca         1 9XY      -0.136500
     19 CAF         10.5500     0.8530     2.3170 ca         1 9XY      -0.077500
     20 CAJ         10.1110     1.9720    -0.9360 cf         1 9XY      -0.057400
     21 CAQ         11.5830     2.2660    -1.0590 c3         1 9XY       0.007800
     22 CAS         12.3590     0.9520    -1.1710 c3         1 9XY       0.008900
     23 CAR          9.2970     1.7720    -2.1440 ca         1 9XY      -0.041800
     24 CAT          8.7070     0.5290    -2.3980 ca         1 9XY      -0.091000
     25 CAU          7.9450     0.3500    -3.5330 ca         1 9XY      -0.100500
     26 CAV          7.7630     1.3960    -4.4200 ca         1 9XY      -0.101000
     27 CAW          8.3430     2.6300    -4.1770 ca         1 9XY      -0.100500
     28 CAX          9.1040     2.8260    -3.0430 ca         1 9XY      -0.091000
     29 H1          -0.3610     0.0010    -1.0210 h1         1 9XY      -0.001633
     30 H2          -0.3610     0.8840     0.5110 h1         1 9XY      -0.001633
     31 H3          -0.3610    -0.8850     0.5100 h1         1 9XY      -0.001633
     32 H4           1.8030    -0.8090    -0.4860 hn         1 9XY       0.248800
     33 H6           1.6480     0.8840     1.8910 h1         1 9XY       0.015700
     34 H7           1.6490    -0.8850     1.8910 h1         1 9XY       0.015700
     35 H8           3.9130    -0.0870     2.3380 h1         1 9XY       0.001200
     36 H9           3.8720    -0.8360     0.7360 h1         1 9XY       0.001200
     37 H10          5.7820    -0.5260     1.5050 ha         1 9XY       0.118000
     38 H11          8.2180    -0.2380     1.3090 ha         1 9XY       0.107000
     39 H12          5.1730     3.3240    -0.2660 ha         1 9XY       0.118000
     40 H13          7.6080     3.6240    -0.4680 ha         1 9XY       0.107000
     41 H14         10.8450     4.0590     1.2280 ha         1 9XY       0.110000
     42 H15         12.2370     4.1970     3.2540 ha         1 9XY       0.113500
     43 H16         13.6030     2.0130     4.6860 ho         1 9XY       0.401000
     44 H17         11.4740     0.0640     4.0740 ha         1 9XY       0.113500
     45 H18         10.0770    -0.0860     2.0530 ha         1 9XY       0.110000
     46 H19         11.9170     2.8090    -0.1820 hc         1 9XY       0.025700
     47 H20         11.7590     2.8660    -1.9430 hc         1 9XY       0.025700
     48 H21         11.8050     0.1620    -0.6780 hc         1 9XY       0.003033
     49 H22         13.3280     1.0630    -0.6990 hc         1 9XY       0.003033
     50 H23         12.4930     0.7000    -2.2160 hc         1 9XY       0.003033
     51 H24          8.8490    -0.2910    -1.7040 ha         1 9XY       0.107000
     52 H25          7.4880    -0.6120    -3.7300 ha         1 9XY       0.102000
     53 H26          7.1640     1.2490    -5.3110 ha         1 9XY       0.101000
     54 H27          8.1940     3.4440    -4.8750 ha         1 9XY       0.102000
     55 H28          9.5570     3.7910    -2.8530 ha         1 9XY       0.107000
@<TRIPOS>BOND
     1     1     2 1   
     2     1    29 1   
     3     1    30 1   
     4     1    31 1   
     5     2     3 1   
     6     2    32 1   
     7     3     4 1   
     8     3    33 1   
     9     3    34 1   
    10     4     5 1   
    11     4    35 1   
    12     4    36 1   
    13     5     6 1   
    14     6     7 ar  
    15     6     9 ar  
    16     7     8 ar  
    17     7    37 1   
    18     8    11 ar  
    19     8    38 1   
    20     9    10 ar  
    21     9    39 1   
    22    10    11 ar  
    23    10    40 1   
    24    11    12 1   
    25    12    13 1   
    26    12    20 2   
    27    13    14 ar  
    28    13    19 ar  
    29    14    15 ar  
    30    14    41 1   
    31    15    16 ar  
    32    15    42 1   
    33    16    17 1   
    34    16    18 ar  
    35    17    43 1   
    36    18    19 ar  
    37    18    44 1   
    38    19    45 1   
    39    20    21 1   
    40    20    23 1   
    41    21    22 1   
    42    21    46 1   
    43    21    47 1   
    44    22    48 1   
    45    22    49 1   
    46    22    50 1   
    47    23    24 ar  
    48    23    28 ar  
    49    24    25 ar  
    50    24    51 1   
    51    25    26 ar  
    52    25    52 1   
    53    26    27 ar  
    54    26    53 1   
    55    27    28 ar  
    56    27    54 1   
    57    28    55 1   
@<TRIPOS>SUBSTRUCTURE
     1 9XY         1 TEMP              0 ****  ****    0 ROOT
