@<TRIPOS>MOLECULE
9XZ
   28    30     1     0     0
SMALL
bcc


@<TRIPOS>ATOM
      1 C1           0.0000     0.0000     0.0000 cc         1 9XZ      -0.123000
      2 C2          -2.5930     0.0020     2.7570 ca         1 9XZ      -0.034000
      3 C3          -2.9190     0.0020     0.3740 ca         1 9XZ       0.423200
      4 C4           1.3310     0.0000     0.0000 cd         1 9XZ       0.007900
      5 C5           0.2890     0.0000     2.2860 cd         1 9XZ       0.006900
      6 C6          -0.5860    -0.0000     1.2640 cc         1 9XZ      -0.056000
      7 C7          -2.0570     0.0010     1.4660 ca         1 9XZ      -0.144300
      8 C8          -3.9780     0.0030     2.8970 ca         1 9XZ      -0.238800
      9 C9          -4.7770     0.0030     1.7440 ca         1 9XZ       0.526200
     10 C10         -4.6000     0.0030     4.2440 cc         1 9XZ       0.580500
     11 N12         -4.2270     0.0030     0.5410 nb         1 9XZ      -0.594000
     12 N13         -3.9580     0.0010     5.4210 nc         1 9XZ      -0.353000
     13 N14         -5.8890     0.0090     4.5160 nd         1 9XZ      -0.683800
     14 N15         -4.8570     0.0010     6.3470 nd         1 9XZ      -0.364800
     15 N16         -6.0220     0.0060     5.7990 na         1 9XZ       0.722900
     16 N17         -6.1600     0.0040     1.8670 nv         1 9XZ      -0.648500
     17 S18          1.9290     0.0000     1.6520 ss         1 9XZ      -0.269800
     18 H1          -0.5830    -0.0000    -0.9130 ha         1 9XZ       0.126000
     19 H4           1.9530    -0.0000    -0.8870 h4         1 9XZ       0.148000
     20 H2          -1.9470     0.0010     3.6270 ha         1 9XZ       0.132000
     21 H3          -2.5100     0.0020    -0.6290 h4         1 9XZ      -0.015900
     22 H5           0.0240     0.0000     3.3360 h4         1 9XZ       0.158000
     23 H171        -6.6600     0.8710     1.8820 hn         1 9XZ       0.279800
     24 H172        -6.6610    -0.8620     1.8840 hn         1 9XZ       0.279800
     25 H111        -7.1110     0.0120     7.5860 h1         1 9XZ       0.036033
     26 H112        -7.8590     0.8990     6.2510 h1         1 9XZ       0.036033
     27 H113        -7.8670    -0.8700     6.2520 h1         1 9XZ       0.036033
     28 C11         -7.2980     0.0120     6.5190 c3         1 9XZ       0.025600
@<TRIPOS>BOND
     1     1     4 2   
     2     1     6 1   
     3     1    18 1   
     4     2     7 ar  
     5     2     8 ar  
     6     2    20 1   
     7     3     7 ar  
     8     3    11 ar  
     9     3    21 1   
    10     4    17 1   
    11     4    19 1   
    12     5     6 2   
    13     5    17 1   
    14     5    22 1   
    15     6     7 1   
    16     8     9 ar  
    17     8    10 1   
    18     9    11 ar  
    19     9    16 1   
    20    10    12 1   
    21    10    13 2   
    22    12    14 2   
    23    13    15 1   
    24    14    15 1   
    25    15    28 1   
    26    16    23 1   
    27    16    24 1   
    28    25    28 1   
    29    26    28 1   
    30    27    28 1   
@<TRIPOS>SUBSTRUCTURE
     1 9XZ         1 TEMP              0 ****  ****    0 ROOT
