@<TRIPOS>MOLECULE
molecule
   30    32     1     0     0
SMALL
bcc


@<TRIPOS>ATOM
      1 C11          0.0000     0.0000     0.0000 ca         1 9Y1       0.125900
      2 C13          1.3850     0.0000     0.0000 ca         1 9Y1      -0.173000
      3 C14          2.0770     0.0000     1.1940 ca         1 9Y1      -0.082000
      4 N15          3.4290     0.0020     3.8250 nc         1 9Y1      -0.410800
      5 C17          4.9960     0.0040     5.7590 cd         1 9Y1       0.485900
      6 C19          7.2230     0.0070     5.8300 cc         1 9Y1       0.365800
      7 C20          8.5650     0.0030     5.2300 c          1 9Y1       0.795100
      8 C23          7.0230     0.0100     7.1660 cd         1 9Y1      -0.177400
      9 F01          1.0360    -0.1120     7.7030 f          1 9Y1      -0.210967
     10 F03          2.8960     1.2000     7.8970 f          1 9Y1      -0.210967
     11 F04          3.0950    -1.0750     7.9190 f          1 9Y1      -0.210967
     12 C05          2.5470     0.0030     5.8770 cc         1 9Y1      -0.174600
     13 C06          1.5440     0.0020     4.9730 cd         1 9Y1      -0.276300
     14 C07          2.1200     0.0010     3.6860 cd         1 9Y1       0.361800
     15 C08          1.3800     0.0010     2.4000 ca         1 9Y1      -0.116500
     16 C09         -0.0130     0.0020     2.3960 ca         1 9Y1      -0.082000
     17 C10         -0.6970     0.0070     1.1980 ca         1 9Y1      -0.173000
     18 F12         -0.6740     0.0000    -1.1710 f          1 9Y1      -0.149900
     19 N16          3.7230     0.0020     5.1950 na         1 9Y1       0.127600
     20 N18          6.1080     0.0040     5.0940 nc         1 9Y1      -0.579000
     21 O21          8.7050    -0.0010     3.8890 o          1 9Y1      -0.810800
     22 O22          9.5500     0.0040     5.9440 o          1 9Y1      -0.810800
     23 S24          5.3440     0.0130     7.4840 ss         1 9Y1      -0.261300
     24 H1           1.9260    -0.0030    -0.9390 ha         1 9Y1       0.143000
     25 H2           3.1600     0.0000     1.1930 ha         1 9Y1       0.154000
     26 H3           7.8040     0.0140     7.9170 h4         1 9Y1       0.199000
     27 H4           0.4840     0.0020     5.1960 ha         1 9Y1       0.161000
     28 H5          -0.5580     0.0050     3.3320 ha         1 9Y1       0.154000
     29 H6          -1.7800     0.0070     1.1930 ha         1 9Y1       0.143000
     30 C02          2.3910     0.0040     7.3750 c3         1 9Y1       0.694200
@<TRIPOS>BOND
     1    22     7 1
     2    21     7 1
     3     7     6 1
     4     6     8 2
     5     6    20 1
     6     8    23 1
     7    20     5 2
     8    23     5 1
     9     5    19 1
    10     4    19 1
    11     4    14 2
    12    19    12 1
    13    16    17 ar
    14    16    15 ar
    15    17     1 ar
    16     9    30 1
    17    14    15 1
    18    14    13 1
    19    15     3 ar
    20     1    18 1
    21     1     2 ar
    22    12    13 2
    23    12    30 1
    24     3     2 ar
    25    30    11 1
    26    30    10 1
    27     2    24 1
    28     3    25 1
    29     8    26 1
    30    13    27 1
    31    16    28 1
    32    17    29 1
@<TRIPOS>SUBSTRUCTURE
     1 9Y1         1 TEMP              0 ****  ****    0 ROOT
