@<TRIPOS>MOLECULE
molecule
   41    42     1     0     0
SMALL
bcc


@<TRIPOS>ATOM
      1 C10          0.0000     0.0000     0.0000 ca         1 9Y2       0.160400
      2 C13          0.0070     0.0010     2.4040 ca         1 9Y2      -0.096600
      3 C15          2.0900     0.0000     1.2050 ca         1 9Y2       0.160400
      4 C17         -0.7290     0.0020     3.6820 c          1 9Y2       0.674700
      5 C20         -0.7480     0.0040     6.0530 cc         1 9Y2       0.535300
      6 C22         -1.0090     0.0110     8.2670 cd         1 9Y2       0.390200
      7 C01          4.2540     3.3700    -2.3770 c3         1 9Y2      -0.086433
      8 C02          3.5270     2.6080    -3.4860 c3         1 9Y2      -0.053000
      9 C03          2.1870     3.2870    -3.7770 c3         1 9Y2      -0.086433
     10 C04          4.3850     2.6070    -4.7520 c3         1 9Y2      -0.086433
     11 C05          3.2800     1.1650    -3.0370 c3         1 9Y2      -0.143400
     12 C06          2.4350     1.1660    -1.7890 c          1 9Y2       0.669100
     13 C09          1.3920     0.0000     0.0000 ca         1 9Y2       0.002600
     14 C12         -0.6920     0.0010     1.1940 ca         1 9Y2      -0.137500
     15 C14          1.4050     0.0010     2.4020 ca         1 9Y2      -0.137500
     16 C23         -2.3070     0.0160     7.9580 cc         1 9Y2      -0.249400
     17 F11         -0.6750     0.0050    -1.1700 f          1 9Y2      -0.119900
     18 F16          3.4420    -0.0000     1.2010 f          1 9Y2      -0.119900
     19 N08          2.0890    -0.0010    -1.2090 ns         1 9Y2      -0.501100
     20 N19         -0.0540     0.0020     4.8500 ns         1 9Y2      -0.512400
     21 N21         -0.1970     0.0040     7.2260 nd         1 9Y2      -0.740000
     22 O07          2.0660     2.2150    -1.3070 o          1 9Y2      -0.584100
     23 O18         -1.9440     0.0030     3.6840 o          1 9Y2      -0.576100
     24 S24         -2.4510     0.0120     6.2020 ss         1 9Y2      -0.080300
     25 H1          -0.6500     0.0120     9.2900 h4         1 9Y2       0.043100
     26 H2           3.5300     3.7680    -1.6770 hc         1 9Y2       0.039811
     27 H3           4.8220     4.1840    -2.8110 hc         1 9Y2       0.039811
     28 H4           4.9260     2.6970    -1.8570 hc         1 9Y2       0.039811
     29 H5           1.7660     3.6670    -2.8540 hc         1 9Y2       0.039811
     30 H6           1.5050     2.5680    -4.2160 hc         1 9Y2       0.039811
     31 H7           2.3400     4.1070    -4.4690 hc         1 9Y2       0.039811
     32 H8           3.8690     2.0670    -5.5370 hc         1 9Y2       0.039811
     33 H9           4.5590     3.6270    -5.0710 hc         1 9Y2       0.039811
     34 H10          5.3330     2.1260    -4.5460 hc         1 9Y2       0.039811
     35 H11          4.2280     0.6830    -2.8310 hc         1 9Y2       0.063200
     36 H12          2.7640     0.6260    -3.8220 hc         1 9Y2       0.063200
     37 H13         -1.7750     0.0010     1.1930 ha         1 9Y2       0.165500
     38 H14          1.9490     0.0010     3.3390 ha         1 9Y2       0.165500
     39 H15         -3.1300     0.0210     8.6630 h4         1 9Y2       0.180000
     40 H16          2.3340    -0.8680    -1.6450 hn         1 9Y2       0.332500
     41 H17          0.9470    -0.0040     4.8490 hn         1 9Y2       0.346500
@<TRIPOS>BOND
     1    10     8 1
     2     7     8 1
     3     8     9 1
     4     8    11 1
     5    11    12 1
     6    19    12 1
     7    19    13 1
     8    12    22 2
     9    17     1 1
    10    13     1 ar
    11    13     3 ar
    12    18     3 1
    13     1    14 ar
    14     3    15 ar
    15    14     2 ar
    16    15     2 ar
    17     2     4 1
    18     4    23 2
    19     4    20 1
    20    20     5 1
    21     5    21 2
    22     5    24 1
    23    21     6 1
    24    24    16 1
    25     6    16 2
    26     6    25 1
    27     7    26 1
    28     7    27 1
    29     7    28 1
    30     9    29 1
    31     9    30 1
    32     9    31 1
    33    10    32 1
    34    10    33 1
    35    10    34 1
    36    11    35 1
    37    11    36 1
    38    14    37 1
    39    15    38 1
    40    16    39 1
    41    19    40 1
    42    20    41 1
@<TRIPOS>SUBSTRUCTURE
     1 9Y2         1 TEMP              0 ****  ****    0 ROOT
