@<TRIPOS>MOLECULE
9Y7
   47    50     1     0     0
SMALL
bcc


@<TRIPOS>ATOM
      1 C10          0.0000     0.0000     0.0000 cc         1 9Y7      -0.369600
      2 C11          1.3560     0.0000     0.0000 cd         1 9Y7      -0.053200
      3 C18         -4.0870     0.8240     1.6260 ca         1 9Y7      -0.115000
      4 C19         -4.4760    -0.0070     2.6630 ca         1 9Y7       0.076900
      5 C22         -2.2340    -0.8400     2.8490 ca         1 9Y7      -0.089000
      6 C26          4.7900     0.0130     3.1760 cc         1 9Y7       0.307800
      7 C27          5.5400     0.0120     2.0520 cd         1 9Y7      -0.070400
      8 C29          5.3830     0.0250     4.5210 c          1 9Y7       0.868100
      9 N01         -0.8120    -6.6520    -2.1160 nz         1 9Y7      -0.130500
     10 O03         -1.0150    -5.7530    -4.4050 o          1 9Y7      -0.506300
     11 O04         -3.0340    -5.9730    -2.9480 o          1 9Y7      -0.506300
     12 C05         -1.4350    -4.0120    -2.5800 ca         1 9Y7      -0.214500
     13 C06         -2.3100    -3.4700    -1.6580 ca         1 9Y7      -0.003000
     14 C07         -2.1330    -2.1720    -1.2160 ca         1 9Y7      -0.106500
     15 C08         -1.0810    -1.4150    -1.6980 ca         1 9Y7       0.039700
     16 C09         -0.8880    -0.0010    -1.2180 c3         1 9Y7       0.115200
     17 O12          2.1560     0.0020    -1.0960 oh         1 9Y7      -0.465100
     18 N13          1.7710     0.0000     1.2970 na         1 9Y7       0.597600
     19 N14          0.6330    -0.0010     2.1150 nd         1 9Y7      -0.577800
     20 C15         -0.4320    -0.0060     1.3410 cc         1 9Y7       0.402800
     21 C16         -1.8420    -0.0080     1.8010 ca         1 9Y7      -0.089500
     22 C17         -2.7770     0.8240     1.1910 ca         1 9Y7      -0.100000
     23 C21         -3.5480    -0.8380     3.2740 ca         1 9Y7       0.079900
     24 F23         -5.7600    -0.0080     3.0810 f          1 9Y7      -0.115900
     25 C24          3.0920     0.0050     1.7350 cd         1 9Y7       0.244900
     26 N25          3.4700     0.0100     2.9730 nc         1 9Y7      -0.392000
     27 S28          4.5080     0.0050     0.6890 ss         1 9Y7      -0.371300
     28 O30          4.5870     0.0270     5.6090 o          1 9Y7      -0.847300
     29 O31          6.5920     0.0330     4.6540 o          1 9Y7      -0.847300
     30 C32         -0.2060    -1.9570    -2.6200 ca         1 9Y7      -0.106500
     31 C33         -0.3790    -3.2580    -3.0580 ca         1 9Y7      -0.003000
     32 H1          -4.8140     1.4710     1.1510 ha         1 9Y7       0.123000
     33 H2          -1.5100    -1.4890     3.3270 ha         1 9Y7       0.143000
     34 H3           6.6230     0.0140     2.0200 h4         1 9Y7       0.183000
     35 H4           0.1570    -6.4030    -2.1380 hn         1 9Y7       0.313133
     36 H5          -0.9180    -7.6040    -2.4090 hn         1 9Y7       0.313133
     37 H6          -3.1470    -4.0550    -1.2960 ha         1 9Y7       0.129500
     38 H7          -2.8480    -1.7300    -0.5330 ha         1 9Y7       0.139000
     39 H8          -0.4270     0.5870    -2.0020 hc         1 9Y7       0.034700
     40 H9          -1.8500     0.4280    -0.9640 hc         1 9Y7       0.034700
     41 H11         -2.4760     1.4730     0.3780 ha         1 9Y7       0.121000
     42 H13          0.5950    -1.3520    -3.0280 ha         1 9Y7       0.139000
     43 H14          0.3360    -3.4720    -3.8430 ha         1 9Y7       0.129500
     44 H15          2.4190     0.8860    -1.2920 ho         1 9Y7       0.417000
     45 H013        -1.1640    -6.5420    -1.1860 hn         1 9Y7       0.313133
     46 F20         -3.9300    -1.6440     4.2910 f          1 9Y7      -0.114900
     47 S02         -1.6600    -5.6670    -3.1410 sy         1 9Y7       0.928200
@<TRIPOS>BOND
     1     1     2 2   
     2     1    16 1   
     3     1    20 1   
     4     2    17 1   
     5     2    18 1   
     6     3     4 ar  
     7     3    22 ar  
     8     3    32 1   
     9     4    23 ar  
    10     4    24 1   
    11     5    21 ar  
    12     5    23 ar  
    13     5    33 1   
    14     6     7 2   
    15     6     8 1   
    16     6    26 1   
    17     7    27 1   
    18     7    34 1   
    19     8    28 1   
    20     8    29 1   
    21     9    35 1   
    22     9    36 1   
    23     9    45 1   
    24     9    47 1   
    25    10    47 2   
    26    11    47 2   
    27    12    13 ar  
    28    12    31 ar  
    29    12    47 1   
    30    13    14 ar  
    31    13    37 1   
    32    14    15 ar  
    33    14    38 1   
    34    15    16 1   
    35    15    30 ar  
    36    16    39 1   
    37    16    40 1   
    38    17    44 1   
    39    18    19 1   
    40    18    25 1   
    41    19    20 2   
    42    20    21 1   
    43    21    22 ar  
    44    22    41 1   
    45    23    46 1   
    46    25    26 2   
    47    25    27 1   
    48    30    31 ar  
    49    30    42 1   
    50    31    43 1   
@<TRIPOS>SUBSTRUCTURE
     1 9Y7         1 TEMP              0 ****  ****    0 ROOT
