@<TRIPOS>MOLECULE
molecule
   67    69     1     0     0
SMALL
bcc


@<TRIPOS>ATOM
      1 C1           0.0000     0.0000     0.0000 ca         1 9Y9      -0.190000
      2 C2           1.3850     0.0000     0.0000 ca         1 9Y9       0.186900
      3 C3           2.0770     0.0000     1.1920 ca         1 9Y9      -0.204000
      4 C4          -0.6690     0.0360     1.2070 ca         1 9Y9      -0.007000
      5 F5           2.0600     0.0010    -1.1710 f          1 9Y9      -0.133900
      6 C6           1.4090     0.0220     2.4200 ca         1 9Y9       0.043700
      7 C7           0.0330     0.0830     2.3970 ca         1 9Y9      -0.320500
      8 S8          -0.8610     0.3030     3.9010 sy         1 9Y9       1.428200
      9 C9           2.3130    -0.0740     3.6300 c3         1 9Y9      -0.047100
     10 N10         -0.1960    -0.7670     4.9830 n3         1 9Y9      -0.802500
     11 C11          1.7740     0.6450     4.8600 c3         1 9Y9      -0.159700
     12 C12          0.9510    -0.3280     5.7290 c3         1 9Y9       0.234800
     13 C13          2.9430     1.1930     5.6810 c3         1 9Y9      -0.071100
     14 C14         -0.7550    -2.1060     5.1700 c3         1 9Y9       0.241800
     15 O15         -2.1870    -0.1420     3.6530 o          1 9Y9      -0.632300
     16 O16         -0.5480     1.6060     4.3730 o          1 9Y9      -0.632300
     17 C17          0.0020    -3.1030     4.2910 c3         1 9Y9       0.105100
     18 C18         -0.6620    -4.4790     4.3910 c3         1 9Y9       0.115700
     19 N19         -0.0110    -5.4040     3.4590 ns         1 9Y9      -0.574900
     20 C20         -0.5210    -5.0100     5.8180 c3         1 9Y9      -0.047100
     21 C21         -1.2800    -6.3060     5.9480 ca         1 9Y9      -0.069300
     22 C22         -0.6460    -7.5070     5.6860 ca         1 9Y9      -0.117000
     23 C23         -1.3430    -8.6960     5.8050 ca         1 9Y9      -0.120500
     24 C24         -2.6710    -8.6830     6.1860 ca         1 9Y9      -0.130000
     25 C25         -3.3040    -7.4830     6.4480 ca         1 9Y9      -0.120500
     26 C26         -2.6070    -6.2950     6.3350 ca         1 9Y9      -0.117000
     27 C27         -0.6860    -6.4720     2.9890 c          1 9Y9       0.752100
     28 O28         -1.8330    -6.6680     3.3380 o          1 9Y9      -0.599000
     29 O29         -0.0870    -7.3220     2.1330 os         1 9Y9      -0.440900
     30 O30          1.3570    -3.1960     4.7330 oh         1 9Y9      -0.602800
     31 C31         -0.8740    -8.4510     1.6680 c3         1 9Y9       0.178800
     32 C32         -1.2980    -9.3040     2.8650 c3         1 9Y9      -0.107767
     33 C33         -2.1170    -7.9400     0.9380 c3         1 9Y9      -0.107767
     34 C34         -0.0330    -9.2980     0.7100 c3         1 9Y9      -0.107767
     35 H1          -0.5500     0.0000    -0.9330 ha         1 9Y9       0.155000
     36 H3           3.1600    -0.0000     1.1770 ha         1 9Y9       0.148000
     37 H4          -1.7520     0.0360     1.2210 ha         1 9Y9       0.162000
     38 H9           2.4480    -1.1200     3.8750 hc         1 9Y9       0.066200
     39 H9A          3.2750     0.3540     3.3750 hc         1 9Y9       0.066200
     40 H11          1.1390     1.4640     4.5440 hc         1 9Y9       0.128700
     41 H12          1.5610    -1.1840     5.9910 h1         1 9Y9       0.059200
     42 H12A         0.6230     0.1800     6.6280 h1         1 9Y9       0.059200
     43 H13          3.6270     0.3870     5.9180 hc         1 9Y9       0.039033
     44 H13A         2.5670     1.6290     6.5990 hc         1 9Y9       0.039033
     45 H13B         3.4630     1.9510     5.1080 hc         1 9Y9       0.039033
     46 H14         -1.8020    -2.1020     4.8920 h1         1 9Y9       0.080200
     47 H14A        -0.6590    -2.3960     6.2090 h1         1 9Y9       0.080200
     48 H17         -0.0190    -2.7660     3.2620 h1         1 9Y9       0.046700
     49 H18         -1.7120    -4.3920     4.1390 h1         1 9Y9       0.092700
     50 HN19         0.9220    -5.2230     3.1450 hn         1 9Y9       0.314500
     51 H20         -0.9240    -4.2850     6.5150 hc         1 9Y9       0.059700
     52 H20A         0.5250    -5.1800     6.0390 hc         1 9Y9       0.059700
     53 H22          0.3950    -7.5170     5.3870 ha         1 9Y9       0.124000
     54 H23         -0.8470    -9.6370     5.6000 ha         1 9Y9       0.125000
     55 H24         -3.2170    -9.6150     6.2770 ha         1 9Y9       0.124000
     56 H25         -4.3440    -7.4740     6.7490 ha         1 9Y9       0.125000
     57 H26         -3.1030    -5.3540     6.5410 ha         1 9Y9       0.124000
     58 HO30         1.9140    -3.3980     4.0000 ho         1 9Y9       0.401000
     59 H32         -2.1410    -8.8380     3.3610 hc         1 9Y9       0.050367
     60 H32A        -1.5820   -10.2910     2.5220 hc         1 9Y9       0.050367
     61 H32B        -0.4720    -9.3880     3.5600 hc         1 9Y9       0.050367
     62 H33         -2.9000    -7.7350     1.6590 hc         1 9Y9       0.050367
     63 H33A        -2.4590    -8.6930     0.2380 hc         1 9Y9       0.050367
     64 H33B        -1.8740    -7.0320     0.4010 hc         1 9Y9       0.050367
     65 H34          0.8570    -9.6450     1.2220 hc         1 9Y9       0.050367
     66 H34A        -0.6130   -10.1500     0.3770 hc         1 9Y9       0.050367
     67 H34B         0.2530    -8.6990    -0.1460 hc         1 9Y9       0.050367
@<TRIPOS>BOND
     1     1     4 ar
     2     1     2 ar
     3     1    35 1
     4     5     2 1
     5     2     3 ar
     6     3     6 ar
     7     3    36 1
     8     4     7 ar
     9     4    37 1
    10     7     6 ar
    11     6     9 1
    12     7     8 1
    13    16     8 2
    14     8    10 1
    15     8    15 2
    16     9    11 1
    17     9    38 1
    18     9    39 1
    19    14    10 1
    20    10    12 1
    21    12    11 1
    22    11    13 1
    23    11    40 1
    24    12    41 1
    25    12    42 1
    26    13    43 1
    27    13    44 1
    28    13    45 1
    29    14    17 1
    30    14    46 1
    31    14    47 1
    32    30    17 1
    33    18    17 1
    34    17    48 1
    35    20    18 1
    36    18    19 1
    37    18    49 1
    38    19    27 1
    39    19    50 1
    40    21    20 1
    41    20    51 1
    42    20    52 1
    43    26    21 ar
    44    21    22 ar
    45    23    22 ar
    46    22    53 1
    47    24    23 ar
    48    23    54 1
    49    25    24 ar
    50    24    55 1
    51    25    26 ar
    52    25    56 1
    53    26    57 1
    54    27    29 1
    55    27    28 2
    56    29    31 1
    57    30    58 1
    58    31    33 1
    59    31    34 1
    60    31    32 1
    61    32    59 1
    62    32    60 1
    63    32    61 1
    64    33    62 1
    65    33    63 1
    66    33    64 1
    67    34    65 1
    68    34    66 1
    69    34    67 1
@<TRIPOS>SUBSTRUCTURE
     1 9Y9         1 TEMP              0 ****  ****    0 ROOT
