@<TRIPOS>MOLECULE
9YA
   66    71     1     0     0
SMALL
bcc


@<TRIPOS>ATOM
      1 C21          0.0000     0.0000     0.0000 cp         1 9YA      -0.033000
      2 C20          1.3900     0.0000     0.0000 ca         1 9YA      -0.077000
      3 C19          2.0810     0.0000     1.2090 ca         1 9YA      -0.104500
      4 C22         -0.6950     0.0000     1.2090 ca         1 9YA      -0.106000
      5 C23         -0.0050    -0.0050     2.4050 ca         1 9YA      -0.102000
      6 C13          7.4140     2.2530     1.5090 cx         1 9YA      -0.097700
      7 C18          3.5650     0.0010     1.2160 cc         1 9YA       0.398800
      8 C15          8.7600     2.8750     1.8830 cx         1 9YA      -0.091400
      9 C14          7.4640     3.6550     2.1180 cx         1 9YA      -0.091400
     10 C05          3.2300     5.5580     1.1820 ca         1 9YA      -0.239500
     11 C06          4.3960     5.3430     1.8930 ca         1 9YA       0.009500
     12 C07          4.6170     4.1230     2.5060 ca         1 9YA      -0.125000
     13 C08          3.6720     3.1190     2.4080 ca         1 9YA       0.050700
     14 C10          4.3880     0.7930     2.0430 cc         1 9YA      -0.337600
     15 C11          5.6730     0.5030     1.7490 cd         1 9YA      -0.257600
     16 C24          1.3760     0.0000     2.4110 ca         1 9YA      -0.115000
     17 C25         -0.7430     0.0060    -1.2840 cp         1 9YA      -0.011000
     18 C26         -2.1370     0.0120    -1.2860 ca         1 9YA      -0.101500
     19 C27         -2.8230     0.0170    -2.4840 ca         1 9YA      -0.110000
     20 C28         -2.1300     0.0170    -3.6810 ca         1 9YA      -0.101000
     21 C29         -0.7470     0.0110    -3.6850 ca         1 9YA      -0.110000
     22 C30         -0.0510     0.0120    -2.4930 ca         1 9YA      -0.101500
     23 C31          6.8020    -1.0130     0.1850 cc         1 9YA       0.252900
     24 C33          7.9820    -2.3270    -1.1710 cd         1 9YA       0.309800
     25 C34          9.0370    -1.7420    -0.5640 cc         1 9YA      -0.080400
     26 C36          8.1370    -3.3430    -2.2230 c          1 9YA       0.869100
     27 C39          2.5060     3.3340     1.6980 ca         1 9YA      -0.125000
     28 C40          2.2830     4.5540     1.0900 ca         1 9YA       0.009500
     29 N01          3.5720     7.0110    -1.1290 nz         1 9YA      -0.131500
     30 N16          5.6750    -0.4410     0.7700 na         1 9YA       0.624600
     31 N17          4.3430    -0.7430     0.4590 nd         1 9YA      -0.587800
     32 N32          6.7860    -1.9110    -0.7470 nd         1 9YA      -0.395000
     33 O03          1.5400     7.2370     0.2540 o          1 9YA      -0.506300
     34 O04          3.7440     8.0610     1.0980 o          1 9YA      -0.506300
     35 O37          7.0490    -3.8920    -2.7970 o          1 9YA      -0.849300
     36 O38          9.2490    -3.6880    -2.5740 o          1 9YA      -0.849300
     37 S35          8.4680    -0.6180     0.5910 ss         1 9YA      -0.378300
     38 H1           1.9340    -0.0000    -0.9370 ha         1 9YA       0.131000
     39 H2          -1.7790    -0.0020     1.2100 ha         1 9YA       0.113000
     40 H3          -0.5490    -0.0050     3.3420 ha         1 9YA       0.104000
     41 H4           6.6260     1.5100     3.3650 hc         1 9YA       0.045200
     42 H5           7.6600     0.3630     2.5010 hc         1 9YA       0.045200
     43 H6           7.2070     2.2280     0.4460 hc         1 9YA       0.066700
     44 H7           9.3660     3.2150     1.0510 hc         1 9YA       0.045450
     45 H8           9.2310     2.4720     2.7720 hc         1 9YA       0.045450
     46 H9           7.1430     3.7280     3.1500 hc         1 9YA       0.045450
     47 H10          7.2780     4.4710     1.4300 hc         1 9YA       0.045450
     48 H11          5.1380     6.1290     1.9680 ha         1 9YA       0.120500
     49 H12          5.5310     3.9540     3.0630 ha         1 9YA       0.154500
     50 H13          4.6730     1.9010     3.8390 hc         1 9YA       0.037700
     51 H14          2.9960     1.4340     3.5200 hc         1 9YA       0.037700
     52 H15          1.9120    -0.0020     3.3520 ha         1 9YA       0.114000
     53 H16         -2.6800     0.0690    -0.3510 ha         1 9YA       0.117500
     54 H17         -3.9070     0.0220    -2.4860 ha         1 9YA       0.104000
     55 H18         -2.6720     0.0210    -4.6190 ha         1 9YA       0.102000
     56 H19         -0.2090     0.0060    -4.6250 ha         1 9YA       0.104000
     57 H20          0.9800     0.0380    -2.8260 ha         1 9YA       0.117500
     58 H21         10.0790    -1.9500    -0.7770 h4         1 9YA       0.183000
     59 H22          1.7650     2.5480     1.6230 ha         1 9YA       0.154500
     60 H23          1.3680     4.7220     0.5330 ha         1 9YA       0.120500
     61 H24          3.1750     6.2230    -1.6010 hn         1 9YA       0.312467
     62 H25          3.3890     7.8420    -1.6550 hn         1 9YA       0.312467
     63 C09          3.9160     1.7880     3.0710 c3         1 9YA       0.105200
     64 C12          6.8910     1.1180     2.3900 c3         1 9YA       0.075900
     65 H013         4.5610     6.8830    -1.0420 hn         1 9YA       0.312467
     66 S02          2.9470     7.1110     0.4010 sy         1 9YA       0.927200
@<TRIPOS>BOND
     1     1     2 ar  
     2     1     4 ar  
     3     1    17 1   
     4     2     3 ar  
     5     2    38 1   
     6     3     7 1   
     7     3    16 ar  
     8     4     5 ar  
     9     4    39 1   
    10     5    16 ar  
    11     5    40 1   
    12     6     8 1   
    13     6     9 1   
    14     6    43 1   
    15     6    64 1   
    16     7    14 1   
    17     7    31 2   
    18     8     9 1   
    19     8    44 1   
    20     8    45 1   
    21     9    46 1   
    22     9    47 1   
    23    10    11 ar  
    24    10    28 ar  
    25    10    66 1   
    26    11    12 ar  
    27    11    48 1   
    28    12    13 ar  
    29    12    49 1   
    30    13    27 ar  
    31    13    63 1   
    32    14    15 2   
    33    14    63 1   
    34    15    30 1   
    35    15    64 1   
    36    16    52 1   
    37    17    18 ar  
    38    17    22 ar  
    39    18    19 ar  
    40    18    53 1   
    41    19    20 ar  
    42    19    54 1   
    43    20    21 ar  
    44    20    55 1   
    45    21    22 ar  
    46    21    56 1   
    47    22    57 1   
    48    23    30 1   
    49    23    32 2   
    50    23    37 1   
    51    24    25 2   
    52    24    26 1   
    53    24    32 1   
    54    25    37 1   
    55    25    58 1   
    56    26    35 1   
    57    26    36 1   
    58    27    28 ar  
    59    27    59 1   
    60    28    60 1   
    61    29    61 1   
    62    29    62 1   
    63    29    65 1   
    64    29    66 1   
    65    30    31 1   
    66    33    66 2   
    67    34    66 2   
    68    41    64 1   
    69    42    64 1   
    70    50    63 1   
    71    51    63 1   
@<TRIPOS>SUBSTRUCTURE
     1 9YA         1 TEMP              0 ****  ****    0 ROOT
