@<TRIPOS>MOLECULE
molecule
   28    30     1     0     0
SMALL
bcc


@<TRIPOS>ATOM
      1 C2           0.0000     0.0000     0.0000 ca         1 9YD       0.085900
      2 C3           1.3870     0.0000     0.0000 ca         1 9YD       0.095900
      3 C4           2.0800     0.0000     1.1960 ca         1 9YD      -0.115000
      4 C5           1.3830    -0.0000     2.4010 ca         1 9YD      -0.084500
      5 C6          -0.0110     0.0010     2.3970 ca         1 9YD      -0.110000
      6 C12          2.5510    -0.0000     5.8810 cc         1 9YD       0.119800
      7 C13          1.5440    -0.0000     4.9730 cd         1 9YD      -0.386300
      8 C15          5.0020    -0.0020     5.7560 cd         1 9YD       0.505900
      9 O21          8.7070    -0.0020     3.8790 o          1 9YD      -0.811800
     10 F1          -0.6750    -0.0010    -1.1700 f          1 9YD      -0.137900
     11 C7          -0.6960    -0.0050     1.1980 ca         1 9YD      -0.154000
     12 F8           2.0610    -0.0000    -1.1710 f          1 9YD      -0.128900
     13 C9           2.1220    -0.0000     3.6880 cd         1 9YD       0.373800
     14 N10          3.4300    -0.0010     3.8260 nc         1 9YD      -0.425800
     15 N11          3.7270    -0.0010     5.1950 na         1 9YD       0.093600
     16 S16          5.3540    -0.0040     7.4800 ss         1 9YD      -0.268300
     17 C17          7.0330    -0.0050     7.1590 cd         1 9YD      -0.183400
     18 C18          7.2280    -0.0030     5.8220 cc         1 9YD       0.368800
     19 N19          6.1120    -0.0080     5.0890 nc         1 9YD      -0.590000
     20 C20          8.5700    -0.0030     5.2200 c          1 9YD       0.795100
     21 O22          9.5560    -0.0040     5.9310 o          1 9YD      -0.811800
     22 H1           3.1630    -0.0000     1.1950 ha         1 9YD       0.186000
     23 H2          -0.5570    -0.0010     3.3330 ha         1 9YD       0.141000
     24 H3           0.4840     0.0000     5.1950 ha         1 9YD       0.152000
     25 H6          -1.7790    -0.0050     1.1940 ha         1 9YD       0.144000
     26 H7           7.8160    -0.0040     7.9070 h4         1 9YD       0.197000
     27 H4           1.8340    -0.6940     7.4900 ho         1 9YD       0.430000
     28 O14          2.4120     0.0040     7.2310 oh         1 9YD      -0.480100
@<TRIPOS>BOND
     1    21    20 1
     2    20     9 1
     3    20    18 1
     4    18    17 2
     5    18    19 1
     6    17    16 1
     7    19     8 2
     8    16     8 1
     9     8    15 1
    10    15     6 1
    11    15    14 1
    12    28     6 1
    13     6     7 2
    14    14    13 2
    15     5    11 ar
    16     5     4 ar
    17    13     7 1
    18    13     4 1
    19    11     1 ar
    20     4     3 ar
    21     1    10 1
    22     1     2 ar
    23     3     2 ar
    24     2    12 1
    25     3    22 1
    26     5    23 1
    27     7    24 1
    28    11    25 1
    29    17    26 1
    30    28    27 1
@<TRIPOS>SUBSTRUCTURE
     1 9YD         1 TEMP              0 ****  ****    0 ROOT
