@<TRIPOS>MOLECULE
molecule
   52    55     1     0     0
SMALL
bcc


@<TRIPOS>ATOM
      1 C1           0.0000     0.0000     0.0000 ca         1 9YE      -0.087000
      2 C10         -2.1780    -0.0130     5.3560 cc         1 9YE      -0.071600
      3 C11         -3.0000    -0.0160     4.2400 cd         1 9YE      -0.191600
      4 C12         -2.7170    -0.0160     6.7650 c3         1 9YE      -0.009100
      5 C13         -4.1650     0.4810     6.7530 c3         1 9YE      -0.072400
      6 C14         -5.0030    -0.3120     5.7440 c3         1 9YE      -0.177400
      7 C15         -4.4640    -0.0310     4.3490 c          1 9YE       0.601700
      8 C16          3.6520    -0.0010     3.4430 c3         1 9YE       0.141600
      9 C18          0.3020     1.3200     6.6060 c3         1 9YE      -0.106600
     10 C19          0.1480    -1.1650     6.8220 c3         1 9YE      -0.106600
     11 C2           1.3970     0.0000     0.0000 ca         1 9YE      -0.107000
     12 C20          4.2820    -0.0030     4.8120 c2         1 9YE      -0.487200
     13 C21          5.2410     0.8440     5.0920 c2         1 9YE       0.087600
     14 C22          5.8060     1.7270     4.0100 c3         1 9YE      -0.105900
     15 C23          5.7800     0.9350     6.4960 c3         1 9YE      -0.105900
     16 C3           2.1230     0.0000     1.1670 ca         1 9YE      -0.193000
     17 C4           1.5050    -0.0010     2.4250 ca         1 9YE       0.127100
     18 C5           0.1110    -0.0010     2.4410 ca         1 9YE      -0.008000
     19 C6          -0.6290     0.0050     1.2350 ca         1 9YE      -0.131600
     20 C7          -0.8300    -0.0050     3.5740 cc         1 9YE      -0.067300
     21 C8          -2.1270    -0.0090     3.0730 cd         1 9YE      -0.191600
     22 C9          -2.0590     0.0010     1.5970 c          1 9YE       0.619300
     23 N1          -0.9030    -0.0060     4.9420 na         1 9YE       0.020900
     24 O1          -3.0000     0.0080     0.8290 o          1 9YE      -0.477100
     25 O2          -5.1900     0.1670     3.3980 o          1 9YE      -0.507100
     26 O3           2.2290    -0.0020     3.5740 os         1 9YE      -0.289900
     27 H1          -0.5660     0.0000    -0.9240 ha         1 9YE       0.157000
     28 H2          -2.1160     0.6400     7.3830 hc         1 9YE       0.056200
     29 H3          -2.6860    -1.0240     7.1610 hc         1 9YE       0.056200
     30 H4          -4.5910     0.3600     7.7420 hc         1 9YE       0.051200
     31 H5          -4.1790     1.5290     6.4800 hc         1 9YE       0.051200
     32 H6          -4.9240    -1.3710     5.9590 hc         1 9YE       0.068700
     33 H7          -6.0380     0.0020     5.8040 hc         1 9YE       0.068700
     34 H8           3.9650     0.8840     2.9030 h1         1 9YE       0.019700
     35 H9           3.9650    -0.8850     2.9010 h1         1 9YE       0.019700
     36 H10          1.1660    -0.1090     5.2520 h1         1 9YE       0.120700
     37 H11         -0.1920     2.0920     6.0290 hc         1 9YE       0.047700
     38 H12          1.3220     1.6210     6.8130 hc         1 9YE       0.047700
     39 H13         -0.2270     1.1730     7.5400 hc         1 9YE       0.047700
     40 H14         -0.3810    -0.8380     7.7080 hc         1 9YE       0.047700
     41 H15          1.1450    -1.4900     7.0950 hc         1 9YE       0.047700
     42 H16         -0.3880    -1.9880     6.3640 hc         1 9YE       0.047700
     43 H17          1.9230     0.0010    -0.9470 ha         1 9YE       0.134000
     44 H18          4.7320    -0.5270     3.9780 ha         1 9YE       0.294000
     45 H19          6.6570     2.2740     4.3980 hc         1 9YE       0.060533
     46 H20          5.0470     2.4260     3.6810 hc         1 9YE       0.060533
     47 H21          6.1220     1.1160     3.1730 hc         1 9YE       0.060533
     48 H22          6.8580     0.8310     6.4770 hc         1 9YE       0.060533
     49 H23          5.5170     1.8960     6.9220 hc         1 9YE       0.060533
     50 H24          5.3520     0.1440     7.0990 hc         1 9YE       0.060533
     51 H25          3.2050     0.0000     1.1130 ha         1 9YE       0.127000
     52 C17          0.2590    -0.0010     5.8340 c3         1 9YE       0.020000
@<TRIPOS>BOND
     1    15    13 1
     2    13    14 1
     3    13    12 2
     4    12     8 1
     5     8    26 1
     6     9    52 1
     7    10    52 1
     8    52    23 1
     9    26    17 1
    10    23     2 1
    11    23    20 1
    12    17    16 ar
    13    17    18 ar
    14     4     2 1
    15     4     5 1
    16    16    11 ar
    17     2     3 2
    18    20    18 1
    19    20    21 2
    20     5     6 1
    21    18    19 ar
    22    11     1 ar
    23     3    21 1
    24     3     7 1
    25    21    22 1
    26    19     1 ar
    27    19    22 1
    28     6     7 1
    29     7    25 2
    30    22    24 2
    31     1    27 1
    32     4    28 1
    33     4    29 1
    34     5    30 1
    35     5    31 1
    36     6    32 1
    37     6    33 1
    38     8    34 1
    39     8    35 1
    40    52    36 1
    41     9    37 1
    42     9    38 1
    43     9    39 1
    44    10    40 1
    45    10    41 1
    46    10    42 1
    47    11    43 1
    48    12    44 1
    49    14    45 1
    50    14    46 1
    51    14    47 1
    52    15    48 1
    53    15    49 1
    54    15    50 1
    55    16    51 1
@<TRIPOS>SUBSTRUCTURE
     1 9YE         1 TEMP              0 ****  ****    0 ROOT
