@<TRIPOS>MOLECULE
9YG
   44    47     1     0     0
SMALL
bcc


@<TRIPOS>ATOM
      1 C4           0.0000     0.0000     0.0000 ca         1 9YG       0.615200
      2 C5           1.4080     0.0000     0.0000 ca         1 9YG      -0.533500
      3 C6           2.0750     0.0000     1.2410 ca         1 9YG       0.333800
      4 N1           1.3510    -0.0010     2.3600 nb         1 9YG      -0.678000
      5 N3          -0.6320    -0.0010     1.1690 nb         1 9YG      -0.729000
      6 CAA          5.8410     0.0030     1.2330 c3         1 9YG      -0.012767
      7 CAC          4.3820    -1.2490     2.8290 c3         1 9YG      -0.012767
      8 CAD          4.3800     1.2490     2.8300 c3         1 9YG      -0.012767
      9 NAE          3.4100     0.0010     0.9650 na         1 9YG       0.393200
     10 NAX          3.5690     0.0020    -0.4270 nc         1 9YG      -0.630100
     11 C2           0.0370    -0.0010     2.3080 ca         1 9YG       0.692900
     12 NAK         -0.7070     0.0060    -1.1860 nv         1 9YG      -0.578500
     13 CAM          2.4010     0.0010    -1.0030 cd         1 9YG       0.431900
     14 CAN          2.1520     0.0000    -2.4890 c3         1 9YG       0.073500
     15 CAO          2.0830     1.4220    -2.9870 cc         1 9YG      -0.150400
     16 CAS          3.2190     2.2970    -3.2830 ca         1 9YG      -0.088800
     17 CAT          4.6060     2.1450    -3.2150 ca         1 9YG      -0.037000
     18 CAU          5.4200     3.1820    -3.5710 ca         1 9YG      -0.135000
     19 CAV          4.8800     4.3880    -3.9980 ca         1 9YG      -0.083000
     20 CAW          3.5160     4.5600    -4.0720 ca         1 9YG      -0.106000
     21 CAR          2.6670     3.5170    -3.7160 ca         1 9YG      -0.227200
     22 NAQ          1.2980     3.3780    -3.6800 na         1 9YG       0.358600
     23 CAP          0.9680     2.1220    -3.2490 cd         1 9YG      -0.269100
     24 H1           6.6390    -0.0540     1.9630 hc         1 9YG       0.019256
     25 H2           5.8970    -0.8510     0.5690 hc         1 9YG       0.019256
     26 H3           5.9420     0.9150     0.6570 hc         1 9YG       0.019256
     27 H4           5.2930    -1.3690     3.4020 hc         1 9YG       0.019256
     28 H5           4.2390    -2.1140     2.1920 hc         1 9YG       0.019256
     29 H6           3.5400    -1.1550     3.5040 hc         1 9YG       0.019256
     30 H7           5.2940     1.3740     3.3980 hc         1 9YG       0.019256
     31 H8           3.5390     1.1780     3.5100 hc         1 9YG       0.019256
     32 H9           4.2430     2.1010     2.1750 hc         1 9YG       0.019256
     33 H10         -0.5200    -0.0020     3.2370 h5         1 9YG      -0.005900
     34 H11         -1.4610     0.6500    -1.3150 hn         1 9YG       0.278800
     35 H12         -0.4980    -0.6690    -1.8960 hn         1 9YG       0.278800
     36 H13          1.2160    -0.5020    -2.6980 hc         1 9YG       0.022200
     37 H14          2.9600    -0.5190    -2.9900 hc         1 9YG       0.022200
     38 H15          5.0340     1.2070    -2.8820 ha         1 9YG       0.111000
     39 H16          6.4960     3.0630    -3.5180 ha         1 9YG       0.102000
     40 H17          5.5390     5.2010    -4.2770 ha         1 9YG       0.099000
     41 H18          3.1050     5.5050    -4.4070 ha         1 9YG       0.098000
     42 H19          0.6410     4.0880    -3.9380 hn         1 9YG       0.112700
     43 H20         -0.0420     1.7480    -3.1390 h4         1 9YG       0.137000
     44 CAB          4.4910     0.0010     1.9530 c3         1 9YG      -0.044300
@<TRIPOS>BOND
     1     1     2 ar  
     2     1     5 ar  
     3     1    12 1   
     4     2     3 ar  
     5     2    13 1   
     6     3     4 ar  
     7     3     9 1   
     8     4    11 ar  
     9     5    11 ar  
    10     6    24 1   
    11     6    25 1   
    12     6    26 1   
    13     6    44 1   
    14     7    27 1   
    15     7    28 1   
    16     7    29 1   
    17     7    44 1   
    18     8    30 1   
    19     8    31 1   
    20     8    32 1   
    21     8    44 1   
    22     9    10 1   
    23     9    44 1   
    24    10    13 2   
    25    11    33 1   
    26    12    34 1   
    27    12    35 1   
    28    13    14 1   
    29    14    15 1   
    30    14    36 1   
    31    14    37 1   
    32    15    16 1   
    33    15    23 2   
    34    16    17 ar  
    35    16    21 ar  
    36    17    18 ar  
    37    17    38 1   
    38    18    19 ar  
    39    18    39 1   
    40    19    20 ar  
    41    19    40 1   
    42    20    21 ar  
    43    20    41 1   
    44    21    22 1   
    45    22    23 1   
    46    22    42 1   
    47    23    43 1   
@<TRIPOS>SUBSTRUCTURE
     1 9YG         1 TEMP              0 ****  ****    0 ROOT
