@<TRIPOS>MOLECULE
molecule
   44    47     1     0     0
SMALL
bcc


@<TRIPOS>ATOM
      1 C4           0.0000     0.0000     0.0000 ca         1 9YG       0.786200
      2 C5           1.4080     0.0000     0.0000 ca         1 9YG      -0.518500
      3 C6           2.0750     0.0000     1.2410 ca         1 9YG       0.522800
      4 N1           1.3510    -0.0010     2.3600 nb         1 9YG      -0.793000
      5 N3          -0.6320    -0.0010     1.1690 nb         1 9YG      -0.826000
      6 CAA          5.8410     0.0030     1.2330 c3         1 9YG      -0.100100
      7 CAC          4.3820    -1.2490     2.8290 c3         1 9YG      -0.100100
      8 CAD          4.3800     1.2490     2.8300 c3         1 9YG      -0.100100
      9 NAE          3.4100     0.0010     0.9650 na         1 9YG      -0.017800
     10 NAX          3.5690     0.0020    -0.4270 nc         1 9YG      -0.502100
     11 C2           0.0370    -0.0010     2.3080 ca         1 9YG       0.740900
     12 NAK         -0.7070     0.0060    -1.1860 nv         1 9YG      -1.040500
     13 CAM          2.4010     0.0010    -1.0030 cd         1 9YG       0.403900
     14 CAN          2.1520     0.0000    -2.4890 c3         1 9YG       0.002500
     15 CAO          2.0830     1.4220    -2.9870 cc         1 9YG      -0.154400
     16 CAS          3.2190     2.2970    -3.2830 ca         1 9YG      -0.092800
     17 CAT          4.6060     2.1450    -3.2150 ca         1 9YG      -0.071000
     18 CAU          5.4200     3.1820    -3.5710 ca         1 9YG      -0.159000
     19 CAV          4.8800     4.3880    -3.9980 ca         1 9YG      -0.107000
     20 CAW          3.5160     4.5600    -4.0720 ca         1 9YG      -0.146000
     21 CAR          2.6670     3.5170    -3.7160 ca         1 9YG      -0.038200
     22 NAQ          1.2980     3.3780    -3.6800 na         1 9YG      -0.181400
     23 CAP          0.9680     2.1220    -3.2490 cd         1 9YG      -0.090100
     24 H1           6.6390    -0.0540     1.9630 hc         1 9YG       0.050256
     25 H2           5.8970    -0.8510     0.5690 hc         1 9YG       0.050256
     26 H3           5.9420     0.9150     0.6570 hc         1 9YG       0.050256
     27 H4           5.2930    -1.3690     3.4020 hc         1 9YG       0.050256
     28 H5           4.2390    -2.1140     2.1920 hc         1 9YG       0.050256
     29 H6           3.5400    -1.1550     3.5040 hc         1 9YG       0.050256
     30 H7           5.2940     1.3740     3.3980 hc         1 9YG       0.050256
     31 H8           3.5390     1.1780     3.5100 hc         1 9YG       0.050256
     32 H9           4.2430     2.1010     2.1750 hc         1 9YG       0.050256
     33 H10         -0.5200    -0.0020     3.2370 h5         1 9YG       0.058100
     34 H11         -1.4610     0.6500    -1.3150 hn         1 9YG       0.441300
     35 H12         -0.4980    -0.6690    -1.8960 hn         1 9YG       0.441300
     36 H13          1.2160    -0.5020    -2.6980 hc         1 9YG       0.057700
     37 H14          2.9600    -0.5190    -2.9900 hc         1 9YG       0.057700
     38 H15          5.0340     1.2070    -2.8820 ha         1 9YG       0.138000
     39 H16          6.4960     3.0630    -3.5180 ha         1 9YG       0.128000
     40 H17          5.5390     5.2010    -4.2770 ha         1 9YG       0.129000
     41 H18          3.1050     5.5050    -4.4070 ha         1 9YG       0.124000
     42 H19          0.6410     4.0880    -3.9380 hn         1 9YG       0.295700
     43 H20         -0.0420     1.7480    -3.1390 h4         1 9YG       0.162000
     44 CAB          4.4910     0.0010     1.9530 c3         1 9YG       0.095700
@<TRIPOS>BOND
     1     6    44 1
     2     7    44 1
     3    44     9 1
     4    44     8 1
     5     9    10 1
     6     9     3 1
     7    10    13 2
     8     3     4 ar
     9     3     2 ar
    10     4    11 ar
    11    14    13 1
    12    14    15 1
    13    13     2 1
    14     2     1 ar
    15    11     5 ar
    16     1     5 ar
    17     1    12 1
    18    17    18 ar
    19    17    16 ar
    20    15    16 1
    21    15    23 2
    22    18    19 ar
    23    16    21 ar
    24    23    22 1
    25    19    20 ar
    26    21    22 1
    27    21    20 ar
    28     6    24 1
    29     6    25 1
    30     6    26 1
    31     7    27 1
    32     7    28 1
    33     7    29 1
    34     8    30 1
    35     8    31 1
    36     8    32 1
    37    11    33 1
    38    12    34 1
    39    12    35 1
    40    14    36 1
    41    14    37 1
    42    17    38 1
    43    18    39 1
    44    19    40 1
    45    20    41 1
    46    22    42 1
    47    23    43 1
@<TRIPOS>SUBSTRUCTURE
     1 9YG         1 TEMP              0 ****  ****    0 ROOT
