@<TRIPOS>MOLECULE
9YH
   57    58     1     0     0
SMALL
bcc


@<TRIPOS>ATOM
      1 CBC          0.0000     0.0000     0.0000 c3         1 9YH       0.245700
      2 OAX          1.4290     0.0000     0.0000 os         1 9YH      -0.300900
      3 CAR          2.0460     0.0000     1.2120 ca         1 9YH       0.061100
      4 CAS          3.4360    -0.0010     1.2870 ca         1 9YH       0.118100
      5 OAY          4.1790    -0.0010     0.1480 oh         1 9YH      -0.427100
      6 CAQ          1.2930     0.0060     2.3740 ca         1 9YH      -0.218000
      7 CAE          1.9220     0.0060     3.6060 ca         1 9YH      -0.114000
      8 CAF          3.3020     0.0000     3.6800 ca         1 9YH      -0.109000
      9 CAG          4.0610    -0.0010     2.5230 ca         1 9YH      -0.039300
     10 CAH          5.5650    -0.0080     2.6080 c3         1 9YH       0.155100
     11 N            6.0630     1.3740     2.5840 n3         1 9YH      -0.534600
     12 CA           5.9560     1.9480     1.2350 c3         1 9YH       0.013800
     13 C            6.8230     1.1630     0.2840 c          1 9YH       0.974600
     14 OXT          6.9530     1.5630    -0.9910 o          1 9YH      -0.900800
     15 O            7.4010     0.1750     0.6700 o          1 9YH      -0.900800
     16 CAJ          7.4450     1.4440     3.0780 c3         1 9YH       0.105800
     17 CAK          7.7910     2.8950     3.4170 c3         1 9YH       0.120800
     18 NAL          9.1970     2.9780     3.8350 n3         1 9YH      -0.489600
     19 CAT         10.0970     2.6550     2.7200 c3         1 9YH       0.018800
     20 CAZ         11.4780     2.3730     3.2540 c          1 9YH       0.977600
     21 OBD         12.4960     2.1640     2.4040 o          1 9YH      -0.898800
     22 OBA         11.6680     2.3350     4.4450 o          1 9YH      -0.898800
     23 CAM          9.5040     4.3020     4.3930 c3         1 9YH       0.180100
     24 CAN          8.6970     4.5170     5.6480 ca         1 9YH      -0.027300
     25 CAO          7.5600     5.3010     5.6130 ca         1 9YH      -0.093000
     26 CAP          6.8200     5.4990     6.7630 ca         1 9YH      -0.137000
     27 CAW          7.2130     4.9120     7.9520 ca         1 9YH      -0.118000
     28 CAV          8.3490     4.1280     7.9950 ca         1 9YH      -0.159000
     29 CAU          9.0920     3.9220     6.8390 ca         1 9YH       0.087900
     30 SBB         10.5380     2.9150     6.8880 ss         1 9YH      -0.178000
     31 CBE         10.6140     2.3930     8.6230 c3         1 9YH       0.044000
     32 H1          -0.3610     0.8860     0.5070 h1         1 9YH      -0.013633
     33 H2          -0.3610    -0.8830     0.5140 h1         1 9YH      -0.013633
     34 H3          -0.3610    -0.0040    -1.0210 h1         1 9YH      -0.013633
     35 H4           3.9590    -0.7560    -0.3720 ho         1 9YH       0.386000
     36 H5           0.2120     0.0110     2.3180 ha         1 9YH       0.100000
     37 H6           1.3320     0.0090     4.5150 ha         1 9YH       0.084000
     38 H7           3.7910     0.0000     4.6460 ha         1 9YH       0.108000
     39 H8           5.8730    -0.4870     3.5300 h1         1 9YH       0.050200
     40 H9           5.9710    -0.5530     1.7650 h1         1 9YH       0.050200
     41 H11          4.9250     1.9040     0.9050 h1         1 9YH       0.026200
     42 H12          6.2850     2.9800     1.2550 h1         1 9YH       0.026200
     43 H14          8.1200     1.0810     2.3130 h1         1 9YH       0.051200
     44 H15          7.5420     0.8320     3.9660 h1         1 9YH       0.051200
     45 H16          7.1540     3.2400     4.2230 h1         1 9YH       0.002700
     46 H17          7.6370     3.5170     2.5440 h1         1 9YH       0.002700
     47 H19         10.1390     3.4940     2.0350 h1         1 9YH       0.027700
     48 H20          9.7270     1.7810     2.1980 h1         1 9YH       0.027700
     49 H22         10.5600     4.3590     4.6280 h1         1 9YH       0.028200
     50 H23          9.2540     5.0670     3.6670 h1         1 9YH       0.028200
     51 H24          7.2660     5.7860     4.6900 ha         1 9YH       0.106000
     52 H25          5.9310     6.1170     6.7330 ha         1 9YH       0.085000
     53 H26          6.6300     5.0690     8.8510 ha         1 9YH       0.079000
     54 H27          8.6970     3.7310     8.9410 ha         1 9YH       0.102000
     55 H28         10.7140     3.2640     9.2580 h1         1 9YH       0.019367
     56 H29          9.7060     1.8610     8.8800 h1         1 9YH       0.019367
     57 H30         11.4670     1.7410     8.7660 h1         1 9YH       0.019367
@<TRIPOS>BOND
     1     1     2 1   
     2     1    32 1   
     3     1    33 1   
     4     1    34 1   
     5     2     3 1   
     6     3     4 ar  
     7     3     6 ar  
     8     4     5 1   
     9     4     9 ar  
    10     5    35 1   
    11     6     7 ar  
    12     6    36 1   
    13     7     8 ar  
    14     7    37 1   
    15     8     9 ar  
    16     8    38 1   
    17     9    10 1   
    18    10    11 1   
    19    10    39 1   
    20    10    40 1   
    21    11    12 1   
    22    11    16 1   
    23    12    13 1   
    24    12    41 1   
    25    12    42 1   
    26    13    14 1   
    27    13    15 1   
    28    16    17 1   
    29    16    43 1   
    30    16    44 1   
    31    17    18 1   
    32    17    45 1   
    33    17    46 1   
    34    18    19 1   
    35    18    23 1   
    36    19    20 1   
    37    19    47 1   
    38    19    48 1   
    39    20    21 1   
    40    20    22 1   
    41    23    24 1   
    42    23    49 1   
    43    23    50 1   
    44    24    25 ar  
    45    24    29 ar  
    46    25    26 ar  
    47    25    51 1   
    48    26    27 ar  
    49    26    52 1   
    50    27    28 ar  
    51    27    53 1   
    52    28    29 ar  
    53    28    54 1   
    54    29    30 1   
    55    30    31 1   
    56    31    55 1   
    57    31    56 1   
    58    31    57 1   
@<TRIPOS>SUBSTRUCTURE
     1 9YH         1 TEMP              0 ****  ****    0 ROOT
