@<TRIPOS>MOLECULE
molecule
   57    58     1     0     0
SMALL
bcc


@<TRIPOS>ATOM
      1 CBC          0.0000     0.0000     0.0000 c3         1 9YH       0.135700
      2 OAX          1.4290     0.0000     0.0000 os         1 9YH      -0.326900
      3 CAR          2.0460     0.0000     1.2120 ca         1 9YH       0.062100
      4 CAS          3.4360    -0.0010     1.2870 ca         1 9YH       0.107100
      5 OAY          4.1790    -0.0010     0.1480 oh         1 9YH      -0.452100
      6 CAQ          1.2930     0.0060     2.3740 ca         1 9YH      -0.227000
      7 CAE          1.9220     0.0060     3.6060 ca         1 9YH      -0.135000
      8 CAF          3.3020     0.0000     3.6800 ca         1 9YH      -0.135000
      9 CAG          4.0610    -0.0010     2.5230 ca         1 9YH      -0.029300
     10 CAH          5.5650    -0.0080     2.6080 c3         1 9YH       0.190100
     11 N            6.0630     1.3740     2.5840 n3         1 9YH      -0.727600
     12 CA           5.9560     1.9480     1.2350 c3         1 9YH       0.041800
     13 C            6.8230     1.1630     0.2840 c          1 9YH       0.879600
     14 OXT          6.9530     1.5630    -0.9910 o          1 9YH      -0.859300
     15 O            7.4010     0.1750     0.6700 o          1 9YH      -0.859300
     16 CAJ          7.4450     1.4440     3.0780 c3         1 9YH       0.152800
     17 CAK          7.7910     2.8950     3.4170 c3         1 9YH       0.153800
     18 NAL          9.1970     2.9780     3.8350 n3         1 9YH      -0.696600
     19 CAT         10.0970     2.6550     2.7200 c3         1 9YH       0.046800
     20 CAZ         11.4780     2.3730     3.2540 c          1 9YH       0.895600
     21 OBD         12.4960     2.1640     2.4040 o          1 9YH      -0.856800
     22 OBA         11.6680     2.3350     4.4450 o          1 9YH      -0.856800
     23 CAM          9.5040     4.3020     4.3930 c3         1 9YH       0.204100
     24 CAN          8.6970     4.5170     5.6480 ca         1 9YH      -0.044300
     25 CAO          7.5600     5.3010     5.6130 ca         1 9YH      -0.112000
     26 CAP          6.8200     5.4990     6.7630 ca         1 9YH      -0.167000
     27 CAW          7.2130     4.9120     7.9520 ca         1 9YH      -0.136000
     28 CAV          8.3490     4.1280     7.9950 ca         1 9YH      -0.177000
     29 CAU          9.0920     3.9220     6.8390 ca         1 9YH       0.033900
     30 SBB         10.5380     2.9150     6.8880 ss         1 9YH      -0.016000
     31 CBE         10.6140     2.3930     8.6230 c3         1 9YH      -0.101000
     32 H1          -0.3610     0.8860     0.5070 h1         1 9YH       0.028033
     33 H2          -0.3610    -0.8830     0.5140 h1         1 9YH       0.028033
     34 H3          -0.3610    -0.0040    -1.0210 h1         1 9YH       0.028033
     35 H4           3.9590    -0.7560    -0.3720 ho         1 9YH       0.408000
     36 H5           0.2120     0.0110     2.3180 ha         1 9YH       0.110000
     37 H6           1.3320     0.0090     4.5150 ha         1 9YH       0.107000
     38 H7           3.7910     0.0000     4.6460 ha         1 9YH       0.135000
     39 H8           5.8730    -0.4870     3.5300 h1         1 9YH       0.068200
     40 H9           5.9710    -0.5530     1.7650 h1         1 9YH       0.068200
     41 H11          4.9250     1.9040     0.9050 h1         1 9YH       0.047700
     42 H12          6.2850     2.9800     1.2550 h1         1 9YH       0.047700
     43 H14          8.1200     1.0810     2.3130 h1         1 9YH       0.065200
     44 H15          7.5420     0.8320     3.9660 h1         1 9YH       0.065200
     45 H16          7.1540     3.2400     4.2230 h1         1 9YH       0.021200
     46 H17          7.6370     3.5170     2.5440 h1         1 9YH       0.021200
     47 H19         10.1390     3.4940     2.0350 h1         1 9YH       0.047200
     48 H20          9.7270     1.7810     2.1980 h1         1 9YH       0.047200
     49 H22         10.5600     4.3590     4.6280 h1         1 9YH       0.046200
     50 H23          9.2540     5.0670     3.6670 h1         1 9YH       0.046200
     51 H24          7.2660     5.7860     4.6900 ha         1 9YH       0.127000
     52 H25          5.9310     6.1170     6.7330 ha         1 9YH       0.105000
     53 H26          6.6300     5.0690     8.8510 ha         1 9YH       0.099000
     54 H27          8.6970     3.7310     8.9410 ha         1 9YH       0.114000
     55 H28         10.7140     3.2640     9.2580 h1         1 9YH       0.043033
     56 H29          9.7060     1.8610     8.8800 h1         1 9YH       0.043033
     57 H30         11.4670     1.7410     8.7660 h1         1 9YH       0.043033
@<TRIPOS>BOND
     1    22    20 1
     2     8     7 ar
     3     8     9 ar
     4    10     9 1
     5    10    11 1
     6     7     6 ar
     7     9     4 ar
     8    20    21 1
     9    20    19 1
    10    16    11 1
    11    16    17 1
    12    11    12 1
    13     6     3 ar
    14    19    18 1
    15     4     3 ar
    16     4     5 1
    17    17    18 1
    18    12    13 1
    19     3     2 1
    20    18    23 1
    21     2     1 1
    22    13    15 1
    23    13    14 1
    24    25    26 ar
    25    25    24 ar
    26    26    27 ar
    27    23    24 1
    28    31    30 1
    29    24    29 ar
    30    27    28 ar
    31    29    28 ar
    32    29    30 1
    33     1    32 1
    34     1    33 1
    35     1    34 1
    36     5    35 1
    37     6    36 1
    38     7    37 1
    39     8    38 1
    40    10    39 1
    41    10    40 1
    42    12    41 1
    43    12    42 1
    44    16    43 1
    45    16    44 1
    46    17    45 1
    47    17    46 1
    48    19    47 1
    49    19    48 1
    50    23    49 1
    51    23    50 1
    52    25    51 1
    53    26    52 1
    54    27    53 1
    55    28    54 1
    56    31    55 1
    57    31    56 1
    58    31    57 1
@<TRIPOS>SUBSTRUCTURE
     1 9YH         1 TEMP              0 ****  ****    0 ROOT
