@<TRIPOS>MOLECULE
9YJ
   38    40     1     0     0
SMALL
bcc


@<TRIPOS>ATOM
      1 C4           0.0000     0.0000     0.0000 ca         1 9YJ       0.615200
      2 C5           1.4040     0.0000     0.0000 ca         1 9YJ      -0.527500
      3 C6           2.0760     0.0000     1.2390 ca         1 9YJ       0.353800
      4 N1           1.3530     0.0000     2.3580 nb         1 9YJ      -0.697000
      5 N3          -0.6320     0.0050     1.1700 nb         1 9YJ      -0.741000
      6 CAJ          4.3630    -1.2510     2.8360 c3         1 9YJ      -0.012100
      7 CAK          4.3630     1.2480     2.8380 c3         1 9YJ      -0.012100
      8 CAL          5.8380     0.0000     1.2560 c3         1 9YJ      -0.012100
      9 NAH          3.4100     0.0000     0.9630 na         1 9YJ       0.394200
     10 NAG          3.5980     0.0010    -0.4240 nc         1 9YJ      -0.636100
     11 C2           0.0390     0.0000     2.3080 ca         1 9YJ       0.708900
     12 NAR         -0.7070     0.0010    -1.1860 nv         1 9YJ      -0.528500
     13 CAF          2.4380     0.0010    -1.0310 cd         1 9YJ       0.475800
     14 SAE          2.1730     0.0020    -2.7730 ss         1 9YJ      -0.262100
     15 CAD          3.8040     0.1560    -3.4210 ca         1 9YJ       0.031900
     16 CAC          4.5170    -0.9780    -3.7880 ca         1 9YJ      -0.031000
     17 CAB          5.7960    -0.8540    -4.2970 ca         1 9YJ      -0.054600
     18 Cl           6.6890    -2.2710    -4.7570 cl         1 9YJ      -0.018400
     19 CAV          6.3650     0.3990    -4.4420 ca         1 9YJ      -0.063000
     20 CAU          5.6570     1.5300    -4.0770 ca         1 9YJ      -0.108000
     21 CAT          4.3770     1.4130    -3.5730 ca         1 9YJ      -0.034000
     22 H1           5.2960    -1.4140     3.3620 hc         1 9YJ       0.019478
     23 H2           4.1450    -2.1090     2.2120 hc         1 9YJ       0.019478
     24 H3           3.5630    -1.1150     3.5540 hc         1 9YJ       0.019478
     25 H4           3.5660     1.1090     3.5590 hc         1 9YJ       0.019478
     26 H5           5.2980     1.4130     3.3600 hc         1 9YJ       0.019478
     27 H6           4.1410     2.1060     2.2160 hc         1 9YJ       0.019478
     28 H7           5.9220    -0.8830     0.6340 hc         1 9YJ       0.019478
     29 H8           5.9830     0.8850     0.6470 hc         1 9YJ       0.019478
     30 H9           6.5930    -0.0310     2.0320 hc         1 9YJ       0.019478
     31 H11         -0.5160     0.0050     3.2390 h5         1 9YJ      -0.005900
     32 H12         -1.5470     0.5390    -1.2670 hn         1 9YJ       0.281800
     33 H13         -0.3730    -0.5260    -1.9680 hn         1 9YJ       0.281800
     34 H15          4.0440    -1.9520    -3.7430 ha         1 9YJ       0.128000
     35 H16          7.3680     0.4940    -4.8390 ha         1 9YJ       0.114000
     36 H17          6.1050     2.5090    -4.1930 ha         1 9YJ       0.111000
     37 H18          3.8240     2.3000    -3.2880 ha         1 9YJ       0.119000
     38 CAI          4.4810    -0.0000     1.9620 c3         1 9YJ      -0.046300
@<TRIPOS>BOND
     1     1     2 ar  
     2     1     5 ar  
     3     1    12 1   
     4     2     3 ar  
     5     2    13 1   
     6     3     4 ar  
     7     3     9 1   
     8     4    11 ar  
     9     5    11 ar  
    10     6    22 1   
    11     6    23 1   
    12     6    24 1   
    13     6    38 1   
    14     7    25 1   
    15     7    26 1   
    16     7    27 1   
    17     7    38 1   
    18     8    28 1   
    19     8    29 1   
    20     8    30 1   
    21     8    38 1   
    22     9    10 1   
    23     9    38 1   
    24    10    13 2   
    25    11    31 1   
    26    12    32 1   
    27    12    33 1   
    28    13    14 1   
    29    14    15 1   
    30    15    16 ar  
    31    15    21 ar  
    32    16    17 ar  
    33    16    34 1   
    34    17    18 1   
    35    17    19 ar  
    36    19    20 ar  
    37    19    35 1   
    38    20    21 ar  
    39    20    36 1   
    40    21    37 1   
@<TRIPOS>SUBSTRUCTURE
     1 9YJ         1 TEMP              0 ****  ****    0 ROOT
