@<TRIPOS>MOLECULE
molecule
   38    40     1     0     0
SMALL
bcc


@<TRIPOS>ATOM
      1 C4           0.0000     0.0000     0.0000 ca         1 9YJ       0.792200
      2 C5           1.4040     0.0000     0.0000 ca         1 9YJ      -0.518500
      3 C6           2.0760     0.0000     1.2390 ca         1 9YJ       0.540800
      4 N1           1.3530     0.0000     2.3580 nb         1 9YJ      -0.804000
      5 N3          -0.6320     0.0050     1.1700 nb         1 9YJ      -0.832000
      6 CAJ          4.3630    -1.2510     2.8360 c3         1 9YJ      -0.098767
      7 CAK          4.3630     1.2480     2.8380 c3         1 9YJ      -0.098767
      8 CAL          5.8380     0.0000     1.2560 c3         1 9YJ      -0.098767
      9 NAH          3.4100     0.0000     0.9630 na         1 9YJ      -0.018800
     10 NAG          3.5980     0.0010    -0.4240 nc         1 9YJ      -0.502100
     11 C2           0.0390     0.0000     2.3080 ca         1 9YJ       0.751900
     12 NAR         -0.7070     0.0010    -1.1860 nv         1 9YJ      -1.014500
     13 CAF          2.4380     0.0010    -1.0310 cd         1 9YJ       0.402800
     14 SAE          2.1730     0.0020    -2.7730 ss         1 9YJ      -0.139100
     15 CAD          3.8040     0.1560    -3.4210 ca         1 9YJ      -0.011100
     16 CAC          4.5170    -0.9780    -3.7880 ca         1 9YJ      -0.062000
     17 CAB          5.7960    -0.8540    -4.2970 ca         1 9YJ       0.013400
     18 Cl           6.6890    -2.2710    -4.7570 cl         1 9YJ      -0.103400
     19 CAV          6.3650     0.3990    -4.4420 ca         1 9YJ      -0.091000
     20 CAU          5.6570     1.5300    -4.0770 ca         1 9YJ      -0.134000
     21 CAT          4.3770     1.4130    -3.5730 ca         1 9YJ      -0.067000
     22 H1           5.2960    -1.4140     3.3620 hc         1 9YJ       0.050367
     23 H2           4.1450    -2.1090     2.2120 hc         1 9YJ       0.050367
     24 H3           3.5630    -1.1150     3.5540 hc         1 9YJ       0.050367
     25 H4           3.5660     1.1090     3.5590 hc         1 9YJ       0.050367
     26 H5           5.2980     1.4130     3.3600 hc         1 9YJ       0.050367
     27 H6           4.1410     2.1060     2.2160 hc         1 9YJ       0.050367
     28 H7           5.9220    -0.8830     0.6340 hc         1 9YJ       0.050367
     29 H8           5.9830     0.8850     0.6470 hc         1 9YJ       0.050367
     30 H9           6.5930    -0.0310     2.0320 hc         1 9YJ       0.050367
     31 H11         -0.5160     0.0050     3.2390 h5         1 9YJ       0.060100
     32 H12         -1.5470     0.5390    -1.2670 hn         1 9YJ       0.447300
     33 H13         -0.3730    -0.5260    -1.9680 hn         1 9YJ       0.447300
     34 H15          4.0440    -1.9520    -3.7430 ha         1 9YJ       0.156000
     35 H16          7.3680     0.4940    -4.8390 ha         1 9YJ       0.146000
     36 H17          6.1050     2.5090    -4.1930 ha         1 9YJ       0.142000
     37 H18          3.8240     2.3000    -3.2880 ha         1 9YJ       0.148000
     38 CAI          4.4810    -0.0000     1.9620 c3         1 9YJ       0.093700
@<TRIPOS>BOND
     1     8    38 1
     2     6    38 1
     3    38     9 1
     4    38     7 1
     5    10     9 1
     6    10    13 2
     7     9     3 1
     8    14    13 1
     9    14    15 1
    10     3     2 ar
    11     3     4 ar
    12    13     2 1
    13     2     1 ar
    14     4    11 ar
    15     1    12 1
    16     1     5 ar
    17    11     5 ar
    18    15    16 ar
    19    15    21 ar
    20    16    17 ar
    21    21    20 ar
    22    17    18 1
    23    17    19 ar
    24    20    19 ar
    25     6    22 1
    26     6    23 1
    27     6    24 1
    28     7    25 1
    29     7    26 1
    30     7    27 1
    31     8    28 1
    32     8    29 1
    33     8    30 1
    34    11    31 1
    35    12    32 1
    36    12    33 1
    37    16    34 1
    38    19    35 1
    39    20    36 1
    40    21    37 1
@<TRIPOS>SUBSTRUCTURE
     1 9YJ         1 TEMP              0 ****  ****    0 ROOT
