@<TRIPOS>MOLECULE
molecule
   54    55     1     0     0
SMALL
bcc


@<TRIPOS>ATOM
      1 OAX          0.0000     0.0000     0.0000 oh         1 9YK      -0.511100
      2 CAR          1.3600     0.0000     0.0000 ca         1 9YK       0.025100
      3 CAS          2.0580     0.0000     1.2050 ca         1 9YK       0.119100
      4 OAY          1.3810     0.0010     2.3830 oh         1 9YK      -0.445100
      5 CAQ          2.0540    -0.0070    -1.1990 ca         1 9YK      -0.182000
      6 CAE          3.4370    -0.0070    -1.1970 ca         1 9YK      -0.154000
      7 CAF          4.1290    -0.0020    -0.0010 ca         1 9YK      -0.114000
      8 CAG          3.4430     0.0000     1.1980 ca         1 9YK      -0.046300
      9 CAH          4.2010     0.0060     2.5010 c3         1 9YK       0.190100
     10 N            4.4050    -1.3750     2.9560 n3         1 9YK      -0.727600
     11 CA           3.1550    -1.9480     3.4730 c3         1 9YK       0.042800
     12 C            2.7030    -1.1640     4.6770 c          1 9YK       0.878600
     13 OXT          1.6260    -1.5630     5.3720 o          1 9YK      -0.858800
     14 O            3.3080    -0.1750     5.0170 o          1 9YK      -0.858800
     15 CAJ          5.4730    -1.4450     3.9630 c3         1 9YK       0.152800
     16 CAK          5.9330    -2.8960     4.1180 c3         1 9YK       0.153800
     17 NAL          6.9430    -2.9790     5.1810 n3         1 9YK      -0.696600
     18 CAT          6.3580    -2.6570     6.4890 c3         1 9YK       0.047800
     19 CAZ          7.4610    -2.3750     7.4770 c          1 9YK       0.895600
     20 OBD          7.1660    -2.1650     8.7690 o          1 9YK      -0.856800
     21 OBA          8.6100    -2.3370     7.1050 o          1 9YK      -0.856800
     22 CAM          7.5790    -4.3030     5.2010 c3         1 9YK       0.204100
     23 CAN          8.3310    -4.5190     3.9130 ca         1 9YK      -0.044300
     24 CAO          7.7830    -5.3030     2.9160 ca         1 9YK      -0.113000
     25 CAP          8.4710    -5.5010     1.7330 ca         1 9YK      -0.167000
     26 CAW          9.7100    -4.9150     1.5430 ca         1 9YK      -0.136000
     27 CAV         10.2640    -4.1310     2.5360 ca         1 9YK      -0.177000
     28 CAU          9.5720    -3.9240     3.7230 ca         1 9YK       0.033900
     29 SBB         10.2710    -2.9180     4.9890 ss         1 9YK      -0.015000
     30 CBE         11.8520    -2.3960     4.2690 c3         1 9YK      -0.101000
     31 H1          -0.3140     0.7840    -0.4200 ho         1 9YK       0.392000
     32 H2           0.7720     0.7200     2.3960 ho         1 9YK       0.405000
     33 H3           1.5130    -0.0110    -2.1380 ha         1 9YK       0.110000
     34 H4           3.9780    -0.0110    -2.1350 ha         1 9YK       0.109000
     35 H5           5.2130    -0.0020    -0.0040 ha         1 9YK       0.136000
     36 H6           3.6340     0.5520     3.2460 h1         1 9YK       0.067700
     37 H7           5.1620     0.4850     2.3570 h1         1 9YK       0.067700
     38 H9           3.3220    -2.9810     3.7560 h1         1 9YK       0.048200
     39 H10          2.3930    -1.9030     2.7050 h1         1 9YK       0.048200
     40 H12          6.3090    -0.8330     3.6470 h1         1 9YK       0.065200
     41 H13          5.0980    -1.0820     4.9120 h1         1 9YK       0.065200
     42 H14          5.0840    -3.5180     4.3770 h1         1 9YK       0.021200
     43 H15          6.3610    -3.2410     3.1850 h1         1 9YK       0.021200
     44 H17          5.7240    -1.7830     6.3960 h1         1 9YK       0.047200
     45 H18          5.7670    -3.4960     6.8380 h1         1 9YK       0.047200
     46 H20          8.2680    -4.3600     6.0350 h1         1 9YK       0.046200
     47 H21          6.8190    -5.0670     5.3080 h1         1 9YK       0.046200
     48 H22          6.8130    -5.7630     3.0610 ha         1 9YK       0.128000
     49 H23          8.0390    -6.1160     0.9530 ha         1 9YK       0.105000
     50 H24         10.2480    -5.0750     0.6170 ha         1 9YK       0.099000
     51 H25         11.2330    -3.6710     2.3860 ha         1 9YK       0.114000
     52 H26         12.3760    -1.7590     4.9720 h1         1 9YK       0.043033
     53 H27         12.4560    -3.2690     4.0530 h1         1 9YK       0.043033
     54 H28         11.6690    -1.8480     3.3530 h1         1 9YK       0.043033
@<TRIPOS>BOND
     1    21    19 1
     2     7     6 ar
     3     7     8 ar
     4     9     8 1
     5     9    10 1
     6     6     5 ar
     7     8     3 ar
     8    15    10 1
     9    15    16 1
    10    19    20 1
    11    19    18 1
    12    10    11 1
    13     5     2 ar
    14     3     2 ar
    15     3     4 1
    16    18    17 1
    17    16    17 1
    18    11    12 1
    19     2     1 1
    20    17    22 1
    21    12    14 1
    22    12    13 1
    23    24    25 ar
    24    24    23 ar
    25    25    26 ar
    26    30    29 1
    27    22    23 1
    28    23    28 ar
    29    26    27 ar
    30    28    27 ar
    31    28    29 1
    32     1    31 1
    33     4    32 1
    34     5    33 1
    35     6    34 1
    36     7    35 1
    37     9    36 1
    38     9    37 1
    39    11    38 1
    40    11    39 1
    41    15    40 1
    42    15    41 1
    43    16    42 1
    44    16    43 1
    45    18    44 1
    46    18    45 1
    47    22    46 1
    48    22    47 1
    49    24    48 1
    50    25    49 1
    51    26    50 1
    52    27    51 1
    53    30    52 1
    54    30    53 1
    55    30    54 1
@<TRIPOS>SUBSTRUCTURE
     1 9YK         1 TEMP              0 ****  ****    0 ROOT
