@<TRIPOS>MOLECULE
molecule
   49    50     1     0     0
SMALL
bcc


@<TRIPOS>ATOM
      1 O2P          0.0000     0.0000     0.0000 o          1 9YM      -0.817500
      2 P            1.6100     0.0000     0.0000 p5         1 9YM       1.179900
      3 O3P          2.1460     0.0000     1.5190 o          1 9YM      -0.817500
      4 O1P          2.1030    -1.2080    -0.6970 o          1 9YM      -0.817500
      5 O4P          2.1470     1.3150    -0.7580 os         1 9YM      -0.575200
      6 C5A          3.5310     1.5530    -1.0170 c3         1 9YM       0.252700
      7 C5           3.6890     2.8670    -1.7390 ca         1 9YM      -0.156600
      8 C4           4.9450     3.3180    -2.1070 ca         1 9YM      -0.103300
      9 C4A          6.1780     2.5140    -1.7880 c3         1 9YM       0.207100
     10 C3           5.0410     4.5340    -2.7770 ca         1 9YM      -0.023200
     11 O3           6.2530     5.0170    -3.1580 oh         1 9YM      -0.532100
     12 C2           3.8830     5.2450    -3.0520 ca         1 9YM       0.359600
     13 C2A          3.9700     6.5630    -3.7770 c3         1 9YM      -0.131400
     14 N1           2.7050     4.7790    -2.6850 nb         1 9YM      -0.689000
     15 C6           2.5790     3.6320    -2.0480 ca         1 9YM       0.453200
     16 OD4         11.2500    -1.3560    -3.2750 oh         1 9YM      -0.618800
     17 CD4         10.0840    -0.5740    -3.5430 c3         1 9YM       0.119100
     18 CD5          8.8380    -1.3560    -3.1250 c3         1 9YM       0.114100
     19 OD5          8.7730    -2.5780    -3.8630 oh         1 9YM      -0.603800
     20 CD6          7.5900    -0.5200    -3.4120 c3         1 9YM       0.131100
     21 OD6          6.4260    -1.2510    -3.0220 oh         1 9YM      -0.562800
     22 CD3         10.1550     0.7340    -2.7520 c3         1 9YM       0.075500
     23 ND3         11.3510     1.4860    -3.1540 nz         1 9YM      -0.806600
     24 CD2          8.9060     1.5710    -3.0400 c3         1 9YM      -0.092400
     25 CD1          7.6600     0.7880    -2.6220 c3         1 9YM       0.173500
     26 ND1          6.4620     1.5930    -2.8970 n7         1 9YM      -0.820200
     27 H3           4.0720     1.5890    -0.0790 h1         1 9YM       0.033200
     28 H4           3.9260     0.7530    -1.6310 h1         1 9YM       0.033200
     29 H5           7.0200     3.1820    -1.6490 h1         1 9YM       0.046700
     30 H6           6.0140     1.9460    -0.8800 h1         1 9YM       0.046700
     31 H8           2.9890     7.0200    -3.8150 hc         1 9YM       0.040033
     32 H9           4.3300     6.3970    -4.7860 hc         1 9YM       0.040033
     33 H10          4.6550     7.2190    -3.2530 hc         1 9YM       0.040033
     34 H11          1.5940     3.2830    -1.7640 h4         1 9YM       0.085100
     35 H13         10.0290    -0.3510    -4.6020 h1         1 9YM       0.050700
     36 H14          8.8890    -1.5730    -2.0650 h1         1 9YM       0.072700
     37 H15          8.7760    -3.3070    -3.2660 ho         1 9YM       0.427000
     38 H16          7.5430    -0.2970    -4.4710 h1         1 9YM       0.048700
     39 H17          6.0600    -1.6840    -3.7750 ho         1 9YM       0.427000
     40 H18         10.2010     0.5110    -1.6930 hx         1 9YM       0.109700
     41 H19         11.3720     2.3630    -2.6710 hn         1 9YM       0.393133
     42 H20         11.3270     1.6500    -4.1410 hn         1 9YM       0.393133
     43 H22          8.8560     1.7890    -4.1000 hc         1 9YM       0.066700
     44 H23          8.9560     2.4960    -2.4780 hc         1 9YM       0.066700
     45 H24          7.7150     0.5650    -1.5630 h1         1 9YM       0.056700
     46 H25          5.6770     0.9860    -3.0360 hn         1 9YM       0.403800
     47 H27          6.3260     4.9780    -4.0970 ho         1 9YM       0.404000
     48 HD33        12.1700     0.9650    -2.9120 hn         1 9YM       0.393133
     49 H12         11.5630    -1.7400    -4.0770 ho         1 9YM       0.422000
@<TRIPOS>BOND
     1    11    10 1
     2    13    12 1
     3    10    12 ar
     4    10     8 ar
     5    12    14 ar
     6    23    22 1
     7    24    22 1
     8    24    25 1
     9    22    17 1
    10    25    26 1
    11    25    20 1
    12    26     9 1
    13     9     8 1
    14     8     7 ar
    15    14    15 ar
    16    21    20 1
    17    20    18 1
    18    18    17 1
    19    18    19 1
    20    17    16 1
    21     7    15 ar
    22     7     6 1
    23     4     2 1
    24     5     6 1
    25     5     2 1
    26     2     3 1
    27     2     1 1
    28     6    27 1
    29     6    28 1
    30     9    29 1
    31     9    30 1
    32    13    31 1
    33    13    32 1
    34    13    33 1
    35    15    34 1
    36    16    49 1
    37    17    35 1
    38    18    36 1
    39    19    37 1
    40    20    38 1
    41    21    39 1
    42    22    40 1
    43    23    41 1
    44    23    42 1
    45    24    43 1
    46    24    44 1
    47    25    45 1
    48    26    46 1
    49    11    47 1
    50    48    23 1
@<TRIPOS>SUBSTRUCTURE
     1 9YM         1 TEMP              0 ****  ****    0 ROOT
