@<TRIPOS>MOLECULE
9YN
   53    55     1     0     0
SMALL
bcc


@<TRIPOS>ATOM
      1 O            0.0000     0.0000     0.0000 o          1 9YN      -0.655100
      2 C            1.2130     0.0000     0.0000 c          1 9YN       0.556100
      3 CA           1.9660     0.0000     1.3050 c3         1 9YN      -0.162500
      4 CB           2.4380    -1.4210     1.6220 c3         1 9YN      -0.034400
      5 CG1          3.3070    -1.4010     2.8810 c3         1 9YN      -0.067700
      6 CD1          3.6760    -2.8340     3.2690 c3         1 9YN       0.006900
      7 CD2          4.5830    -0.6020     2.6060 c3         1 9YN       0.006900
      8 N            1.0830     0.4740     2.3790 nz         1 9YN       0.095400
      9 NAI          1.8860    -0.0060    -1.1670 ns         1 9YN      -0.063900
     10 CAJ          1.1540    -0.0130    -2.4360 c3         1 9YN      -0.056300
     11 CAK          0.8910    -1.4610    -2.9020 c3         1 9YN       0.148100
     12 OAL          1.4350    -2.3950    -1.9660 oh         1 9YN      -0.598800
     13 CAM          1.6280    -1.5600    -4.2560 c3         1 9YN       0.139100
     14 CAN          0.8280    -2.4190    -5.2370 c3         1 9YN       0.229400
     15 OAO          1.5790    -2.5940    -6.4390 oh         1 9YN      -0.575800
     16 OAP          1.7110    -0.1990    -4.7300 os         1 9YN      -0.359600
     17 CAQ          2.0200     0.5930    -3.5630 c3         1 9YN       0.162800
     18 N9           1.6570     1.9950    -3.7870 na         1 9YN       0.188000
     19 C8           0.7730     2.4600    -4.7150 cc         1 9YN       0.261700
     20 N7           0.6910     3.7570    -4.6390 nd         1 9YN      -0.471100
     21 C5           1.5130     4.2040    -3.6610 ca         1 9YN      -0.231200
     22 C4           2.1390     3.0790    -3.0990 ca         1 9YN       0.260800
     23 C6           1.8320     5.4700    -3.1390 ca         1 9YN       0.599200
     24 N6           1.2440     6.6140    -3.6470 nv         1 9YN      -0.462500
     25 N1           2.7120     5.5420    -2.1450 nb         1 9YN      -0.733000
     26 C2           3.2790     4.4550    -1.6530 ca         1 9YN       0.697900
     27 N3           3.0010     3.2490    -2.1020 nb         1 9YN      -0.737000
     28 H1           2.8240     0.6570     1.2270 hx         1 9YN       0.106700
     29 H2           1.5780    -2.0590     1.7860 hc         1 9YN       0.059700
     30 H3           3.0170    -1.8030     0.7890 hc         1 9YN       0.059700
     31 H4           2.7580    -0.9380     3.6910 hc         1 9YN      -0.000300
     32 H5           4.2350    -2.8240     4.1970 hc         1 9YN       0.017700
     33 H6           2.7720    -3.4170     3.3980 hc         1 9YN       0.017700
     34 H7           4.2830    -3.2750     2.4870 hc         1 9YN       0.017700
     35 H8           4.3750     0.4560     2.7040 hc         1 9YN       0.017700
     36 H9           4.9310    -0.8100     1.6020 hc         1 9YN       0.017700
     37 H10          5.3480    -0.8870     3.3190 hc         1 9YN       0.017700
     38 H11          1.6350     0.7480     3.1680 hn         1 9YN       0.229467
     39 H12          0.4600    -0.2610     2.6480 hn         1 9YN       0.229467
     40 H14          2.8870    -0.0280    -1.1670 hn         1 9YN       0.189500
     41 H15          0.2210     0.5290    -2.3450 h1         1 9YN       0.087700
     42 H16         -0.1710    -1.6260    -3.0380 h1         1 9YN       0.038700
     43 H17          0.9520    -3.2040    -2.0120 ho         1 9YN       0.416000
     44 H18          2.6210    -1.9690    -4.1130 h1         1 9YN       0.050700
     45 H19         -0.1100    -1.9270    -5.4650 h1         1 9YN      -0.003800
     46 H20          0.6290    -3.3860    -4.7910 h1         1 9YN      -0.003800
     47 H21          1.1600    -3.2430    -6.9800 ho         1 9YN       0.403000
     48 H22          3.0710     0.5050    -3.3170 h2         1 9YN       0.051700
     49 H23          0.2210     1.8420    -5.4130 h5         1 9YN       0.048800
     50 H24          1.2220     7.4510    -3.0980 hn         1 9YN       0.282300
     51 H25          0.8560     6.6100    -4.5690 hn         1 9YN       0.282300
     52 H26          3.9910     4.5590    -0.8430 h5         1 9YN      -0.008900
     53 HN3          0.5730     1.2740     2.0630 hn         1 9YN       0.229467
@<TRIPOS>BOND
     1     1     2 2   
     2     2     3 1   
     3     2     9 1   
     4     3     4 1   
     5     3     8 1   
     6     3    28 1   
     7     4     5 1   
     8     4    29 1   
     9     4    30 1   
    10     5     6 1   
    11     5     7 1   
    12     5    31 1   
    13     6    32 1   
    14     6    33 1   
    15     6    34 1   
    16     7    35 1   
    17     7    36 1   
    18     7    37 1   
    19     8    38 1   
    20     8    39 1   
    21     8    53 1   
    22     9    10 1   
    23     9    40 1   
    24    10    11 1   
    25    10    17 1   
    26    10    41 1   
    27    11    12 1   
    28    11    13 1   
    29    11    42 1   
    30    12    43 1   
    31    13    14 1   
    32    13    16 1   
    33    13    44 1   
    34    14    15 1   
    35    14    45 1   
    36    14    46 1   
    37    15    47 1   
    38    16    17 1   
    39    17    18 1   
    40    17    48 1   
    41    18    19 1   
    42    18    22 1   
    43    19    20 2   
    44    19    49 1   
    45    20    21 1   
    46    21    22 ar  
    47    21    23 ar  
    48    22    27 ar  
    49    23    24 1   
    50    23    25 ar  
    51    24    50 1   
    52    24    51 1   
    53    25    26 ar  
    54    26    27 ar  
    55    26    52 1   
@<TRIPOS>SUBSTRUCTURE
     1 9YN         1 TEMP              0 ****  ****    0 ROOT
