@<TRIPOS>MOLECULE
9YO
   44    47     1     0     0
SMALL
bcc


@<TRIPOS>ATOM
      1 C1           0.0000     0.0000     0.0000 ca         1 9YO      -0.164500
      2 C2           2.0740     0.0000     1.1970 ca         1 9YO      -0.132000
      3 C3          -4.8070    -3.4110    -1.7470 c3         1 9YO       0.219700
      4 C4          -6.6000    -2.1520    -2.3010 c2         1 9YO       0.470200
      5 C5          -0.2390    -6.8590    -1.9790 c3         1 9YO       0.068200
      6 O18         -1.8630     1.0230    -1.4220 o          1 9YO      -0.572800
      7 S19         -0.8820     0.0010    -1.5260 sy         1 9YO       1.033300
      8 O8           0.0980    -0.0320    -2.5540 o          1 9YO      -0.572800
      9 C12          1.3820     0.0000     0.0000 ca         1 9YO       0.017000
     10 C26         -0.6910     0.0040     1.1990 ca         1 9YO       0.046400
     11 Cl9         -2.4280     0.0110     1.1990 cl         1 9YO       0.028600
     12 C20          0.0010     0.0040     2.3960 ca         1 9YO      -0.125000
     13 C17          1.3830    -0.0010     2.3940 ca         1 9YO      -0.032000
     14 N14         -1.7050    -1.4330    -1.6180 na         1 9YO       0.190100
     15 C24         -3.0670    -1.5570    -1.6280 cc         1 9YO      -0.143100
     16 C15         -1.1210    -2.6770    -1.7010 ca         1 9YO      -0.143200
     17 C7           0.2000    -3.1150    -1.7340 ca         1 9YO      -0.097000
     18 C25         -2.1620    -3.6200    -1.7590 ca         1 9YO      -0.078800
     19 C23         -1.8630    -4.9820    -1.8500 ca         1 9YO      -0.059000
     20 C16         -0.5600    -5.3900    -1.8810 ca         1 9YO      -0.109300
     21 C13          0.4710    -4.4610    -1.8240 ca         1 9YO      -0.084000
     22 C11         -3.4080    -2.8530    -1.7100 cd         1 9YO      -0.139400
     23 N6          -5.7820    -2.3880    -1.3410 n2         1 9YO      -0.659900
     24 C10         -5.2150    -3.7560    -3.1940 c3         1 9YO       0.126800
     25 N21         -6.3760    -2.8800    -3.4300 nu         1 9YO      -0.536200
     26 C22         -7.7170    -1.1460    -2.1890 c3         1 9YO      -0.010400
     27 H1           3.1570    -0.0020     1.1960 ha         1 9YO       0.112000
     28 H2          -4.8910    -4.2860    -1.1130 h1         1 9YO       0.039700
     29 H3           0.8050    -6.9840    -2.2420 hc         1 9YO       0.005367
     30 H4          -0.4290    -7.3350    -1.0240 hc         1 9YO       0.005367
     31 H5          -0.8610    -7.3150    -2.7400 hc         1 9YO       0.005367
     32 H6           1.9230     0.0010    -0.9380 ha         1 9YO       0.132000
     33 H7          -0.5400     0.0060     3.3340 ha         1 9YO       0.121000
     34 H8           1.9250    -0.0010     3.3320 ha         1 9YO       0.106000
     35 H9          -3.7670    -0.7320    -1.5780 h4         1 9YO       0.175000
     36 H11          1.0110    -2.3980    -1.6900 ha         1 9YO       0.114000
     37 H12         -2.6590    -5.7160    -1.8040 ha         1 9YO       0.105000
     38 H13          1.5000    -4.8000    -1.8500 ha         1 9YO       0.106000
     39 H15         -5.5810    -4.7750    -3.1880 h1         1 9YO       0.035200
     40 H16         -7.5820    -0.3720    -2.9340 hc         1 9YO       0.016700
     41 H17         -8.6660    -1.6420    -2.3510 hc         1 9YO       0.016700
     42 H18         -7.7060    -0.7020    -1.2010 hc         1 9YO       0.016700
     43 H10         -4.4180    -3.4080    -3.8400 h1         1 9YO       0.035200
     44 H14         -6.9090    -2.8300    -4.2750 hn         1 9YO       0.311800
@<TRIPOS>BOND
     1     1     7 1   
     2     1     9 ar  
     3     1    10 ar  
     4     2     9 ar  
     5     2    13 ar  
     6     2    27 1   
     7     3    22 1   
     8     3    23 1   
     9     3    24 1   
    10     3    28 1   
    11     4    23 2   
    12     4    25 1   
    13     4    26 1   
    14     5    20 1   
    15     5    29 1   
    16     5    30 1   
    17     5    31 1   
    18     6     7 2   
    19     7     8 2   
    20     7    14 1   
    21     9    32 1   
    22    10    11 1   
    23    10    12 ar  
    24    12    13 ar  
    25    12    33 1   
    26    13    34 1   
    27    14    15 1   
    28    14    16 1   
    29    15    22 2   
    30    15    35 1   
    31    16    17 ar  
    32    16    18 ar  
    33    17    21 ar  
    34    17    36 1   
    35    18    19 ar  
    36    18    22 1   
    37    19    20 ar  
    38    19    37 1   
    39    20    21 ar  
    40    21    38 1   
    41    24    25 1   
    42    24    39 1   
    43    24    43 1   
    44    25    44 1   
    45    26    40 1   
    46    26    41 1   
    47    26    42 1   
@<TRIPOS>SUBSTRUCTURE
     1 9YO         1 TEMP              0 ****  ****    0 ROOT
