@<TRIPOS>MOLECULE
molecule
   44    47     1     0     0
SMALL
bcc


@<TRIPOS>ATOM
      1 C1           0.0000     0.0000     0.0000 ca         1 9YO      -0.311500
      2 C2           2.0740     0.0000     1.1970 ca         1 9YO      -0.151000
      3 C3          -4.8070    -3.4110    -1.7470 c3         1 9YO       0.177700
      4 C4          -6.6000    -2.1520    -2.3010 c2         1 9YO       0.611200
      5 C5          -0.2390    -6.8590    -1.9790 c3         1 9YO      -0.044800
      6 O18         -1.8630     1.0230    -1.4220 o          1 9YO      -0.610800
      7 S19         -0.8820     0.0010    -1.5260 sy         1 9YO       1.415300
      8 O8           0.0980    -0.0320    -2.5540 o          1 9YO      -0.610800
      9 C12          1.3820     0.0000     0.0000 ca         1 9YO      -0.019000
     10 C26         -0.6910     0.0040     1.1990 ca         1 9YO       0.118400
     11 Cl9         -2.4280     0.0110     1.1990 cl         1 9YO      -0.066400
     12 C20          0.0010     0.0040     2.3960 ca         1 9YO      -0.140000
     13 C17          1.3830    -0.0010     2.3940 ca         1 9YO      -0.063000
     14 N14         -1.7050    -1.4330    -1.6180 na         1 9YO      -0.210900
     15 C24         -3.0670    -1.5570    -1.6280 cc         1 9YO      -0.056100
     16 C15         -1.1210    -2.6770    -1.7010 ca         1 9YO      -0.038200
     17 C7           0.2000    -3.1150    -1.7340 ca         1 9YO      -0.126000
     18 C25         -2.1620    -3.6200    -1.7590 ca         1 9YO      -0.074800
     19 C23         -1.8630    -4.9820    -1.8500 ca         1 9YO      -0.090000
     20 C16         -0.5600    -5.3900    -1.8810 ca         1 9YO      -0.097300
     21 C13          0.4710    -4.4610    -1.8240 ca         1 9YO      -0.106000
     22 C11         -3.4080    -2.8530    -1.7100 cd         1 9YO      -0.123400
     23 N6          -5.7820    -2.3880    -1.3410 n2         1 9YO      -0.685900
     24 C10         -5.2150    -3.7560    -3.1940 c3         1 9YO       0.189800
     25 N21         -6.3760    -2.8800    -3.4300 nu         1 9YO      -0.931200
     26 C22         -7.7170    -1.1460    -2.1890 c3         1 9YO      -0.118400
     27 H1           3.1570    -0.0020     1.1960 ha         1 9YO       0.142000
     28 H2          -4.8910    -4.2860    -1.1130 h1         1 9YO       0.078700
     29 H3           0.8050    -6.9840    -2.2420 hc         1 9YO       0.042367
     30 H4          -0.4290    -7.3350    -1.0240 hc         1 9YO       0.042367
     31 H5          -0.8610    -7.3150    -2.7400 hc         1 9YO       0.042367
     32 H6           1.9230     0.0010    -0.9380 ha         1 9YO       0.162000
     33 H7          -0.5400     0.0060     3.3340 ha         1 9YO       0.152000
     34 H8           1.9250    -0.0010     3.3320 ha         1 9YO       0.141000
     35 H9          -3.7670    -0.7320    -1.5780 h4         1 9YO       0.206000
     36 H11          1.0110    -2.3980    -1.6900 ha         1 9YO       0.136000
     37 H12         -2.6590    -5.7160    -1.8040 ha         1 9YO       0.132000
     38 H13          1.5000    -4.8000    -1.8500 ha         1 9YO       0.135000
     39 H15         -5.5810    -4.7750    -3.1880 h1         1 9YO       0.064200
     40 H16         -7.5820    -0.3720    -2.9340 hc         1 9YO       0.058367
     41 H17         -8.6660    -1.6420    -2.3510 hc         1 9YO       0.058367
     42 H18         -7.7060    -0.7020    -1.2010 hc         1 9YO       0.058367
     43 H10         -4.4180    -3.4080    -3.8400 h1         1 9YO       0.064200
     44 H14         -6.9090    -2.8300    -4.2750 hn         1 9YO       0.450800
@<TRIPOS>BOND
     1    11    10 1
     2    12    10 ar
     3    12    13 ar
     4    10     1 ar
     5    13     2 ar
     6     8     7 2
     7     1     7 1
     8     1     9 ar
     9    15    22 2
    10    15    14 1
    11     2     9 ar
    12    23     3 1
    13    23     4 2
    14     3    22 1
    15     3    24 1
    16     7    14 1
    17     7     6 2
    18     4    26 1
    19     4    25 1
    20    22    18 1
    21    14    16 1
    22    24    25 1
    23    18    16 ar
    24    18    19 ar
    25    16    17 ar
    26    19    20 ar
    27    17    21 ar
    28    20    21 ar
    29    20     5 1
    30     2    27 1
    31     3    28 1
    32     5    29 1
    33     5    30 1
    34     5    31 1
    35     9    32 1
    36    12    33 1
    37    13    34 1
    38    15    35 1
    39    17    36 1
    40    19    37 1
    41    21    38 1
    42    24    39 1
    43    26    40 1
    44    26    41 1
    45    26    42 1
    46    24    43 1
    47    25    44 1
@<TRIPOS>SUBSTRUCTURE
     1 9YO         1 TEMP              0 ****  ****    0 ROOT
