@<TRIPOS>MOLECULE
molecule
   46    47     1     0     0
SMALL
bcc


@<TRIPOS>ATOM
      1 OAE          0.0000     0.0000     0.0000 o          1 9YP      -0.762167
      2 PBA          1.6100     0.0000     0.0000 p5         1 9YP       1.069700
      3 OAF          2.1470     0.0000     1.5180 o          1 9YP      -0.762167
      4 OAC          2.1040     1.2090    -0.6970 o          1 9YP      -0.762167
      5 CAL          2.2180    -1.4880    -0.8600 c3         1 9YP      -0.249600
      6 CAK          3.7420    -1.4270    -0.9700 c3         1 9YP       0.164400
      7 OAS          4.2190    -2.5930    -1.6440 os         1 9YP      -0.399600
      8 CAM          5.6390    -2.6360    -1.7990 c3         1 9YP       0.154400
      9 CAY          6.0340    -3.9200    -2.5300 c3         1 9YP      -0.093700
     10 CAN          5.6860    -5.1300    -1.6590 c3         1 9YP       0.122400
     11 OAT          4.2690    -5.2070    -1.4970 os         1 9YP      -0.382600
     12 CAO          3.8340    -6.3090    -0.6950 c3         1 9YP      -0.032800
     13 PBB          4.1770    -5.9540     1.0600 p5         1 9YP       1.021700
     14 OAG          3.3860    -4.6230     1.5030 o          1 9YP      -0.724500
     15 OAH          3.6880    -7.1940     1.9630 o          1 9YP      -0.724500
     16 OAD          5.6300    -5.7490     1.2470 o          1 9YP      -0.724500
     17 CAP          7.5380    -3.9080    -2.8070 c3         1 9YP       0.058300
     18 NAZ          7.8970    -5.0800    -3.6100 na         1 9YP      -0.208900
     19 CAW          7.8290    -5.1790    -4.9730 cc         1 9YP       0.126800
     20 NAJ          7.4570    -4.3450    -5.9510 nc         1 9YP      -0.681100
     21 CAU          7.4950    -4.7160    -7.2110 cd         1 9YP       0.150800
     22 NAA          7.1040    -3.8260    -8.1800 nz         1 9YP      -0.637600
     23 NAR          7.9120    -5.9590    -7.5840 ns         1 9YP      -0.478400
     24 CAV          8.3030    -6.8560    -6.6510 c          1 9YP       0.671000
     25 OAB          8.6770    -7.9700    -6.9740 o          1 9YP      -0.710500
     26 CAX          8.2660    -6.4690    -5.2910 cc         1 9YP       0.108800
     27 NAQ          8.5750    -7.0880    -4.1250 nc         1 9YP      -0.652000
     28 CAI          8.3660    -6.2700    -3.1350 cd         1 9YP       0.395400
     29 H3           1.9320    -2.3700    -0.3010 hc         1 9YP       0.060200
     30 H4           1.7860    -1.5330    -1.8520 hc         1 9YP       0.060200
     31 H5           4.1740    -1.3810     0.0220 h1         1 9YP       0.021200
     32 H6           4.0290    -0.5440    -1.5290 h1         1 9YP       0.021200
     33 H7           6.1100    -2.6160    -0.8240 h1         1 9YP       0.004200
     34 H8           5.9650    -1.7780    -2.3750 h1         1 9YP       0.004200
     35 H9           5.4940    -3.9830    -3.4670 hc         1 9YP       0.068700
     36 H10          6.0450    -6.0340    -2.1360 h1         1 9YP       0.045200
     37 H11          6.1550    -5.0230    -0.6880 h1         1 9YP       0.045200
     38 H12          2.7700    -6.4580    -0.8330 h1         1 9YP       0.033700
     39 H13          4.3660    -7.2040    -0.9930 h1         1 9YP       0.033700
     40 H16          8.0790    -3.9340    -1.8690 h1         1 9YP       0.050700
     41 H17          7.7980    -3.0060    -3.3480 h1         1 9YP       0.050700
     42 H18          7.7840    -3.8120    -8.9140 hn         1 9YP       0.365467
     43 H19          6.2170    -4.1060    -8.5520 hn         1 9YP       0.365467
     44 H20          7.9280    -6.2090    -8.5530 hn         1 9YP       0.277500
     45 H21          8.5400    -6.4990    -2.0910 h5         1 9YP       0.070100
     46 HAA3         7.0250    -2.9120    -7.7820 hn         1 9YP       0.365467
@<TRIPOS>BOND
     1    25    24 2
     2    15    13 1
     3    27    28 2
     4    27    26 1
     5    16    13 1
     6    24    26 1
     7    24    23 1
     8    13    12 1
     9    13    14 1
    10    28    18 1
    11    26    19 2
    12    12    11 1
    13    23    21 1
    14    18    19 1
    15    18    17 1
    16    19    20 1
    17    10    11 1
    18    10     9 1
    19    21    20 2
    20    21    22 1
    21    17     9 1
    22     9     8 1
    23     8     7 1
    24     7     6 1
    25     6     5 1
    26     3     2 1
    27     5     2 1
    28     1     2 1
    29     2     4 1
    30     5    29 1
    31     5    30 1
    32     6    31 1
    33     6    32 1
    34     8    33 1
    35     8    34 1
    36     9    35 1
    37    10    36 1
    38    10    37 1
    39    12    38 1
    40    12    39 1
    41    17    40 1
    42    17    41 1
    43    22    42 1
    44    22    43 1
    45    23    44 1
    46    28    45 1
    47    46    22 1
@<TRIPOS>SUBSTRUCTURE
     1 9YP         1 TEMP              0 ****  ****    0 ROOT
