@<TRIPOS>MOLECULE
molecule
   69    73     1     0     0
SMALL
bcc


@<TRIPOS>ATOM
      1 C4           0.0000     0.0000     0.0000 ca         1 9YQ       0.188600
      2 C5          -1.6150     1.0190    -1.5820 c3         1 9YQ       0.250100
      3 C6          -0.5310    -1.1660    -2.0230 ca         1 9YQ       0.744200
      4 N1          -1.5570    -1.9680    -2.2810 nb         1 9YQ      -0.803000
      5 C7          -1.3890    -3.0690    -2.9990 ca         1 9YQ       0.939900
      6 C8          -2.3470    -4.9930    -4.0970 ca         1 9YQ       0.145600
      7 N2          -2.4820    -3.8850    -3.2510 nu         1 9YQ      -0.754300
      8 C9          -3.0870    -6.1430    -3.8570 ca         1 9YQ      -0.131500
      9 C10         -2.9550    -7.2360    -4.6900 ca         1 9YQ      -0.125500
     10 C11         -2.0810    -7.1840    -5.7680 ca         1 9YQ       0.035600
     11 C12         -0.7460    -8.5910    -7.1480 c          1 9YQ       0.677700
     12 N3          -1.9470    -8.2930    -6.6130 ns         1 9YQ      -0.477100
     13 C13         -0.5810    -9.8170    -7.9540 ca         1 9YQ      -0.170600
     14 C14          0.6630   -10.1270    -8.5090 ca         1 9YQ      -0.067000
     15 C15          0.8140   -11.2710    -9.2600 ca         1 9YQ      -0.158000
     16 O2           3.1610     0.6960    -1.2960 o          1 9YQ      -0.645500
     17 C27          2.1530     0.0180    -1.2600 c          1 9YQ       0.722100
     18 C3           1.4010     0.0000     0.0000 ca         1 9YQ      -0.151600
     19 C2           2.0880     0.0000     1.2190 ca         1 9YQ      -0.060000
     20 N6           1.8270    -0.6400    -2.3640 n          1 9YQ      -0.355000
     21 C26          2.7180    -0.4720    -3.5140 c3         1 9YQ       0.087300
     22 C25          0.7260    -1.4760    -2.5440 ca         1 9YQ      -0.255000
     23 N           -0.7040    -0.0630    -1.1980 na         1 9YQ      -0.745700
     24 C28         -0.6900     0.0450     1.2040 ca         1 9YQ      -0.147000
     25 C29          0.0020     0.0590     2.3990 ca         1 9YQ      -0.097000
     26 C1           1.3870     0.0300     2.4040 ca         1 9YQ      -0.102300
     27 C            2.1310     0.0310     3.7150 c3         1 9YQ      -0.046800
     28 C24          0.8600    -2.6470    -3.2790 ca         1 9YQ       0.480200
     29 N5          -0.2050    -3.4080    -3.4820 nb         1 9YQ      -0.774000
     30 C23         -1.4780    -4.9400    -5.1790 ca         1 9YQ      -0.131500
     31 C22         -1.3410    -6.0340    -6.0090 ca         1 9YQ      -0.125500
     32 O1           0.2010    -7.8500    -6.9670 o          1 9YQ      -0.596100
     33 C21         -1.6670   -10.6710    -8.1590 ca         1 9YQ      -0.067000
     34 C20         -1.5090   -11.8140    -8.9110 ca         1 9YQ      -0.158000
     35 C16         -0.2700   -12.1170    -9.4660 ca         1 9YQ       0.081600
     36 C17          0.6980   -13.2720   -11.3020 c          1 9YQ       0.656100
     37 O            1.3590   -12.2870   -11.5580 o          1 9YQ      -0.586100
     38 C18          0.7880   -14.4910   -12.1830 c3         1 9YQ      -0.159400
     39 C19          1.7730   -14.2240   -13.3230 c3         1 9YQ      -0.077100
     40 H1          -2.6210     0.7750    -1.2620 h1         1 9YQ       0.040367
     41 H2          -1.3000     1.9410    -1.1100 h1         1 9YQ       0.040367
     42 H3          -1.5980     1.1400    -2.6580 h1         1 9YQ       0.040367
     43 H4          -3.3690    -3.6750    -2.8380 hn         1 9YQ       0.465800
     44 H5          -3.7690    -6.1820    -3.0160 ha         1 9YQ       0.145500
     45 H6          -3.5330    -8.1330    -4.5020 ha         1 9YQ       0.149500
     46 H7          -2.7460    -8.8520    -6.8360 hn         1 9YQ       0.322500
     47 H8           1.5080    -9.4680    -8.3480 ha         1 9YQ       0.144000
     48 H9           1.7790   -11.5120    -9.6900 ha         1 9YQ       0.151000
     49 H10         -0.6620   -14.0870   -10.0170 hn         1 9YQ       0.324500
     50 H11          3.1710    -0.0230     1.2300 ha         1 9YQ       0.153000
     51 H12          3.0810     0.5480    -3.5440 h1         1 9YQ       0.051700
     52 H13          3.5570    -1.1520    -3.4230 h1         1 9YQ       0.051700
     53 H14          2.1750    -0.6900    -4.4260 h1         1 9YQ       0.051700
     54 H15         -1.7730     0.0680     1.2070 ha         1 9YQ       0.143000
     55 H16         -0.5410     0.0830     3.3360 ha         1 9YQ       0.135000
     56 H17          1.4330     0.2030     4.5260 hc         1 9YQ       0.045700
     57 H18          2.8760     0.8170     3.7060 hc         1 9YQ       0.045700
     58 H19          2.6170    -0.9270     3.8540 hc         1 9YQ       0.045700
     59 H20          1.8250    -2.9360    -3.6790 h4         1 9YQ       0.041100
     60 H21         -0.9010    -4.0420    -5.3660 ha         1 9YQ       0.145500
     61 H22         -0.6620    -5.9930    -6.8510 ha         1 9YQ       0.149500
     62 H23         -2.6320   -10.4350    -7.7260 ha         1 9YQ       0.144000
     63 H24         -2.3510   -12.4760    -9.0720 ha         1 9YQ       0.151000
     64 H25         -0.1900   -14.7110   -12.5950 hc         1 9YQ       0.061200
     65 H26          1.1320   -15.3350   -11.5980 hc         1 9YQ       0.061200
     66 H27          1.8180   -15.0910   -13.9710 hc         1 9YQ       0.046700
     67 H28          1.4420   -13.3640   -13.8920 hc         1 9YQ       0.046700
     68 H29          2.7560   -14.0290   -12.9120 hc         1 9YQ       0.046700
     69 N4          -0.1140   -13.2760   -10.2260 ns         1 9YQ      -0.480100
@<TRIPOS>BOND
     1     2    23 1
     2    27    26 1
     3    16    17 2
     4    25    24 ar
     5    25    26 ar
     6    24     1 ar
     7    26    19 ar
     8    23     1 1
     9    23     3 1
    10     1    18 ar
    11    19    18 ar
    12    18    17 1
    13    17    20 1
    14    20    21 1
    15    20    22 1
    16     3    22 ar
    17     3     4 ar
    18    22    28 ar
    19     4     5 ar
    20    34    33 ar
    21    34    35 ar
    22    38    39 1
    23    38    36 1
    24    33    13 ar
    25    31    30 ar
    26    31    10 ar
    27    30     6 ar
    28    69    35 1
    29    69    36 1
    30    35    15 ar
    31    12    10 1
    32    12    11 1
    33    36    37 2
    34    13    11 1
    35    13    14 ar
    36    28    29 ar
    37    10     9 ar
    38     5    29 ar
    39     5     7 1
    40    11    32 2
    41     6     7 1
    42     6     8 ar
    43    15    14 ar
    44     9     8 ar
    45     2    40 1
    46     2    41 1
    47     2    42 1
    48     7    43 1
    49     8    44 1
    50     9    45 1
    51    12    46 1
    52    14    47 1
    53    15    48 1
    54    69    49 1
    55    19    50 1
    56    21    51 1
    57    21    52 1
    58    21    53 1
    59    24    54 1
    60    25    55 1
    61    27    56 1
    62    27    57 1
    63    27    58 1
    64    28    59 1
    65    30    60 1
    66    31    61 1
    67    33    62 1
    68    34    63 1
    69    38    64 1
    70    38    65 1
    71    39    66 1
    72    39    67 1
    73    39    68 1
@<TRIPOS>SUBSTRUCTURE
     1 9YQ         1 TEMP              0 ****  ****    0 ROOT
