@<TRIPOS>MOLECULE
9YQ
   69    73     1     0     0
SMALL
bcc


@<TRIPOS>ATOM
      1 C4           0.0000     0.0000     0.0000 ca         1 9YQ       0.053600
      2 C5          -1.6150     1.0190    -1.5820 c3         1 9YQ       0.225100
      3 C6          -0.5310    -1.1660    -2.0230 ca         1 9YQ       0.579200
      4 N1          -1.5570    -1.9680    -2.2810 nb         1 9YQ      -0.690000
      5 C7          -1.3890    -3.0690    -2.9990 ca         1 9YQ       0.704900
      6 C8          -2.3470    -4.9930    -4.0970 ca         1 9YQ      -0.014400
      7 N2          -2.4820    -3.8850    -3.2510 nu         1 9YQ      -0.283300
      8 C9          -3.0870    -6.1430    -3.8570 ca         1 9YQ      -0.105000
      9 C10         -2.9550    -7.2360    -4.6900 ca         1 9YQ      -0.096500
     10 C11         -2.0810    -7.1840    -5.7680 ca         1 9YQ      -0.106400
     11 C12         -0.7460    -8.5910    -7.1480 c          1 9YQ       0.588700
     12 N3          -1.9470    -8.2930    -6.6130 ns         1 9YQ      -0.038100
     13 C13         -0.5810    -9.8170    -7.9540 ca         1 9YQ      -0.179600
     14 C14          0.6630   -10.1270    -8.5090 ca         1 9YQ      -0.038000
     15 C15          0.8140   -11.2710    -9.2600 ca         1 9YQ      -0.132500
     16 O2           3.1610     0.6960    -1.2960 o          1 9YQ      -0.689500
     17 C27          2.1530     0.0180    -1.2600 c          1 9YQ       0.627100
     18 C3           1.4010     0.0000     0.0000 ca         1 9YQ      -0.151600
     19 C2           2.0880     0.0000     1.2190 ca         1 9YQ      -0.028000
     20 N6           1.8270    -0.6400    -2.3640 n          1 9YQ       0.056000
     21 C26          2.7180    -0.4720    -3.5140 c3         1 9YQ       0.046300
     22 C25          0.7260    -1.4760    -2.5440 ca         1 9YQ      -0.399000
     23 N           -0.7040    -0.0630    -1.1980 na         1 9YQ      -0.383700
     24 C28         -0.6900     0.0450     1.2040 ca         1 9YQ      -0.122000
     25 C29          0.0020     0.0590     2.3990 ca         1 9YQ      -0.069000
     26 C1           1.3870     0.0300     2.4040 ca         1 9YQ      -0.109300
     27 C            2.1310     0.0310     3.7150 c3         1 9YQ       0.066200
     28 C24          0.8600    -2.6470    -3.2790 ca         1 9YQ       0.473200
     29 N5          -0.2050    -3.4080    -3.4820 nb         1 9YQ      -0.670000
     30 C23         -1.4780    -4.9400    -5.1790 ca         1 9YQ      -0.105000
     31 C22         -1.3410    -6.0340    -6.0090 ca         1 9YQ      -0.096500
     32 O1           0.2010    -7.8500    -6.9670 o          1 9YQ      -0.637100
     33 C21         -1.6670   -10.6710    -8.1590 ca         1 9YQ      -0.038000
     34 C20         -1.5090   -11.8140    -8.9110 ca         1 9YQ      -0.132500
     35 C16         -0.2700   -12.1170    -9.4660 ca         1 9YQ      -0.064400
     36 C17          0.6980   -13.2720   -11.3020 c          1 9YQ       0.558100
     37 O            1.3590   -12.2870   -11.5580 o          1 9YQ      -0.625100
     38 C18          0.7880   -14.4910   -12.1830 c3         1 9YQ      -0.097400
     39 C19          1.7730   -14.2240   -13.3230 c3         1 9YQ       0.021900
     40 H1          -2.6210     0.7750    -1.2620 h1         1 9YQ       0.006367
     41 H2          -1.3000     1.9410    -1.1100 h1         1 9YQ       0.006367
     42 H3          -1.5980     1.1400    -2.6580 h1         1 9YQ       0.006367
     43 H4          -3.3690    -3.6750    -2.8380 hn         1 9YQ       0.292800
     44 H5          -3.7690    -6.1820    -3.0160 ha         1 9YQ       0.120000
     45 H6          -3.5330    -8.1330    -4.5020 ha         1 9YQ       0.125000
     46 H7          -2.7460    -8.8520    -6.8360 hn         1 9YQ       0.170500
     47 H8           1.5080    -9.4680    -8.3480 ha         1 9YQ       0.114500
     48 H9           1.7790   -11.5120    -9.6900 ha         1 9YQ       0.128000
     49 H10         -0.6620   -14.0870   -10.0170 hn         1 9YQ       0.167500
     50 H11          3.1710    -0.0230     1.2300 ha         1 9YQ       0.124000
     51 H12          3.0810     0.5480    -3.5440 h1         1 9YQ       0.022700
     52 H13          3.5570    -1.1520    -3.4230 h1         1 9YQ       0.022700
     53 H14          2.1750    -0.6900    -4.4260 h1         1 9YQ       0.022700
     54 H15         -1.7730     0.0680     1.2070 ha         1 9YQ       0.115000
     55 H16         -0.5410     0.0830     3.3360 ha         1 9YQ       0.106000
     56 H17          1.4330     0.2030     4.5260 hc         1 9YQ       0.008367
     57 H18          2.8760     0.8170     3.7060 hc         1 9YQ       0.008367
     58 H19          2.6170    -0.9270     3.8540 hc         1 9YQ       0.008367
     59 H20          1.8250    -2.9360    -3.6790 h4         1 9YQ      -0.003900
     60 H21         -0.9010    -4.0420    -5.3660 ha         1 9YQ       0.120000
     61 H22         -0.6620    -5.9930    -6.8510 ha         1 9YQ       0.125000
     62 H23         -2.6320   -10.4350    -7.7260 ha         1 9YQ       0.114500
     63 H24         -2.3510   -12.4760    -9.0720 ha         1 9YQ       0.128000
     64 H25         -0.1900   -14.7110   -12.5950 hc         1 9YQ       0.026200
     65 H26          1.1320   -15.3350   -11.5980 hc         1 9YQ       0.026200
     66 H27          1.8180   -15.0910   -13.9710 hc         1 9YQ       0.010700
     67 H28          1.4420   -13.3640   -13.8920 hc         1 9YQ       0.010700
     68 H29          2.7560   -14.0290   -12.9120 hc         1 9YQ       0.010700
     69 N4          -0.1140   -13.2760   -10.2260 ns         1 9YQ      -0.039100
@<TRIPOS>BOND
     1     1    18 ar  
     2     1    23 1   
     3     1    24 ar  
     4     2    23 1   
     5     2    40 1   
     6     2    41 1   
     7     2    42 1   
     8     3     4 ar  
     9     3    22 ar  
    10     3    23 1   
    11     4     5 ar  
    12     5     7 1   
    13     5    29 ar  
    14     6     7 1   
    15     6     8 ar  
    16     6    30 ar  
    17     7    43 1   
    18     8     9 ar  
    19     8    44 1   
    20     9    10 ar  
    21     9    45 1   
    22    10    12 1   
    23    10    31 ar  
    24    11    12 1   
    25    11    13 1   
    26    11    32 2   
    27    12    46 1   
    28    13    14 ar  
    29    13    33 ar  
    30    14    15 ar  
    31    14    47 1   
    32    15    35 ar  
    33    15    48 1   
    34    16    17 2   
    35    17    18 1   
    36    17    20 1   
    37    18    19 ar  
    38    19    26 ar  
    39    19    50 1   
    40    20    21 1   
    41    20    22 1   
    42    21    51 1   
    43    21    52 1   
    44    21    53 1   
    45    22    28 ar  
    46    24    25 ar  
    47    24    54 1   
    48    25    26 ar  
    49    25    55 1   
    50    26    27 1   
    51    27    56 1   
    52    27    57 1   
    53    27    58 1   
    54    28    29 ar  
    55    28    59 1   
    56    30    31 ar  
    57    30    60 1   
    58    31    61 1   
    59    33    34 ar  
    60    33    62 1   
    61    34    35 ar  
    62    34    63 1   
    63    35    69 1   
    64    36    37 2   
    65    36    38 1   
    66    36    69 1   
    67    38    39 1   
    68    38    64 1   
    69    38    65 1   
    70    39    66 1   
    71    39    67 1   
    72    39    68 1   
    73    49    69 1   
@<TRIPOS>SUBSTRUCTURE
     1 9YQ         1 TEMP              0 ****  ****    0 ROOT
