@<TRIPOS>MOLECULE
9YS
   54    57     1     0     0
SMALL
bcc


@<TRIPOS>ATOM
      1 C13          1.4650     0.0000     0.0000 c3         1 9YS       0.119500
      2 C18          2.4170     0.5940    -3.0960 ca         1 9YS      -0.096500
      3 C17          1.5770     1.1890    -2.1730 ca         1 9YS      -0.100300
      4 C15          1.9750     0.0000     1.4430 c3         1 9YS       0.199400
      5 C19          2.0520     0.5390    -4.4280 ca         1 9YS      -0.098000
      6 C20          0.8440     1.0720    -4.8360 ca         1 9YS      -0.103000
      7 C21          0.0010     1.6620    -3.9120 ca         1 9YS      -0.098000
      8 C22          0.3720     1.7280    -2.5820 ca         1 9YS      -0.096500
      9 C23         -0.8210    -5.9990     0.1770 ca         1 9YS       0.017600
     10 C24         -2.0420    -6.0600    -0.4700 ca         1 9YS      -0.061000
     11 C12         -4.9500     1.2820     0.4750 c3         1 9YS       0.086300
     12 C27         -1.0190    -8.2970     0.8200 ca         1 9YS      -0.019000
     13 C1          -2.0990    -1.2100     0.2260 ca         1 9YS      -0.431900
     14 C2          -2.7550    -2.4370     0.3280 ca         1 9YS       0.521200
     15 N3          -2.0750    -3.5650     0.3110 nb         1 9YS      -0.705000
     16 C4          -0.7530    -3.5880     0.1970 ca         1 9YS       0.558200
     17 C5          -0.0220    -2.4120     0.0920 ca         1 9YS      -0.426300
     18 C6          -0.6930    -1.1950     0.1040 ca         1 9YS       0.198600
     19 N7           0.0000     0.0000     0.0000 nu         1 9YS      -0.390600
     20 C9          -2.8630     0.0490     0.2380 c          1 9YS       0.636700
     21 N10         -4.1910     0.0290     0.4630 ns         1 9YS      -0.192900
     22 O11         -2.2940     1.1070     0.0460 o          1 9YS      -0.688100
     23 C14          1.9750     1.2490    -0.7210 c3         1 9YS       0.025900
     24 O16          1.5970     1.2210     2.0820 oh         1 9YS      -0.586800
     25 C25         -2.7670    -7.2500    -0.4780 ca         1 9YS       0.016900
     26 C26         -2.2680    -8.3860     0.1660 ca         1 9YS       0.035400
     27 C28         -0.3220    -7.1280     0.8250 ca         1 9YS      -0.139000
     28 S29         -4.3230    -7.6570    -1.1960 ss         1 9YS      -0.250100
     29 C30         -4.1860    -9.3010    -0.5840 cc         1 9YS       0.428100
     30 N31         -3.0900    -9.4490     0.0590 nd         1 9YS      -0.435100
     31 H1           1.8270    -0.8840    -0.5110 h1         1 9YS       0.044700
     32 H2           3.3630     0.1750    -2.7760 ha         1 9YS       0.111000
     33 H3           1.5430    -0.8370     1.9790 h1         1 9YS      -0.006300
     34 H4           3.0550    -0.0890     1.4440 h1         1 9YS      -0.006300
     35 H5           2.7110     0.0750    -5.1520 ha         1 9YS       0.102500
     36 H6           0.5550     1.0250    -5.8790 ha         1 9YS       0.101000
     37 H7          -0.9450     2.0820    -4.2320 ha         1 9YS       0.102500
     38 H8          -0.2870     2.1920    -1.8590 ha         1 9YS       0.111000
     39 H9          -2.4040    -5.2020    -1.0230 ha         1 9YS       0.146000
     40 H10         -4.8720     1.7620    -0.4930 h1         1 9YS       0.009700
     41 H11         -4.5500     1.9390     1.2380 h1         1 9YS       0.009700
     42 H12         -5.9910     1.0710     0.6900 h1         1 9YS       0.009700
     43 H13         -0.6170    -9.1640     1.3290 ha         1 9YS       0.112000
     44 H14         -3.8330    -2.4630     0.4220 h4         1 9YS      -0.029900
     45 H15          1.0570    -2.4430    -0.0000 ha         1 9YS       0.132000
     46 H16         -0.5000     0.8660    -0.0330 hn         1 9YS       0.369800
     47 H17          0.9100    -4.8320     0.1690 hn         1 9YS       0.286800
     48 H18         -4.6550    -0.8380     0.6480 hn         1 9YS       0.177500
     49 H19          1.5430     2.1310    -0.2640 hc         1 9YS       0.034700
     50 H20          3.0550     1.2950    -0.6440 hc         1 9YS       0.034700
     51 H21          1.9840     1.2600     2.9410 ho         1 9YS       0.392000
     52 H22          0.6340    -7.0780     1.3320 ha         1 9YS       0.108000
     53 H23         -4.9260   -10.0790    -0.7310 h5         1 9YS       0.028800
     54 N8          -0.0910    -4.8060     0.1860 nu         1 9YS      -0.305300
@<TRIPOS>BOND
     1     1     4 1   
     2     1    19 1   
     3     1    23 1   
     4     1    31 1   
     5     2     3 ar  
     6     2     5 ar  
     7     2    32 1   
     8     3     8 ar  
     9     3    23 1   
    10     4    24 1   
    11     4    33 1   
    12     4    34 1   
    13     5     6 ar  
    14     5    35 1   
    15     6     7 ar  
    16     6    36 1   
    17     7     8 ar  
    18     7    37 1   
    19     8    38 1   
    20     9    10 ar  
    21     9    27 ar  
    22     9    54 1   
    23    10    25 ar  
    24    10    39 1   
    25    11    21 1   
    26    11    40 1   
    27    11    41 1   
    28    11    42 1   
    29    12    26 ar  
    30    12    27 ar  
    31    12    43 1   
    32    13    14 ar  
    33    13    18 ar  
    34    13    20 1   
    35    14    15 ar  
    36    14    44 1   
    37    15    16 ar  
    38    16    17 ar  
    39    16    54 1   
    40    17    18 ar  
    41    17    45 1   
    42    18    19 1   
    43    19    46 1   
    44    20    21 1   
    45    20    22 2   
    46    21    48 1   
    47    23    49 1   
    48    23    50 1   
    49    24    51 1   
    50    25    26 ar  
    51    25    28 1   
    52    26    30 1   
    53    27    52 1   
    54    28    29 1   
    55    29    30 2   
    56    29    53 1   
    57    47    54 1   
@<TRIPOS>SUBSTRUCTURE
     1 9YS         1 TEMP              0 ****  ****    0 ROOT
