@<TRIPOS>MOLECULE
molecule
   54    57     1     0     0
SMALL
bcc


@<TRIPOS>ATOM
      1 C13          1.4650     0.0000     0.0000 c3         1 9YS       0.239500
      2 C18          2.4170     0.5940    -3.0960 ca         1 9YS      -0.120500
      3 C17          1.5770     1.1890    -2.1730 ca         1 9YS      -0.090300
      4 C15          1.9750     0.0000     1.4430 c3         1 9YS       0.117400
      5 C19          2.0520     0.5390    -4.4280 ca         1 9YS      -0.126500
      6 C20          0.8440     1.0720    -4.8360 ca         1 9YS      -0.129000
      7 C21          0.0010     1.6620    -3.9120 ca         1 9YS      -0.126500
      8 C22          0.3720     1.7280    -2.5820 ca         1 9YS      -0.120500
      9 C23         -0.8210    -5.9990     0.1770 ca         1 9YS       0.168600
     10 C24         -2.0420    -6.0600    -0.4700 ca         1 9YS      -0.090000
     11 C12         -4.9500     1.2820     0.4750 c3         1 9YS       0.103300
     12 C27         -1.0190    -8.2970     0.8200 ca         1 9YS      -0.053000
     13 C1          -2.0990    -1.2100     0.2260 ca         1 9YS      -0.410900
     14 C2          -2.7550    -2.4370     0.3280 ca         1 9YS       0.528200
     15 N3          -2.0750    -3.5650     0.3110 nb         1 9YS      -0.800000
     16 C4          -0.7530    -3.5880     0.1970 ca         1 9YS       0.745200
     17 C5          -0.0220    -2.4120     0.0920 ca         1 9YS      -0.423300
     18 C6          -0.6930    -1.1950     0.1040 ca         1 9YS       0.320600
     19 N7           0.0000     0.0000     0.0000 nu         1 9YS      -0.774600
     20 C9          -2.8630     0.0490     0.2380 c          1 9YS       0.704700
     21 N10         -4.1910     0.0290     0.4630 ns         1 9YS      -0.584900
     22 O11         -2.2940     1.1070     0.0460 o          1 9YS      -0.645100
     23 C14          1.9750     1.2490    -0.7210 c3         1 9YS      -0.040100
     24 O16          1.5970     1.2210     2.0820 oh         1 9YS      -0.603800
     25 C25         -2.7670    -7.2500    -0.4780 ca         1 9YS      -0.018100
     26 C26         -2.2680    -8.3860     0.1660 ca         1 9YS       0.088400
     27 C28         -0.3220    -7.1280     0.8250 ca         1 9YS      -0.164000
     28 S29         -4.3230    -7.6570    -1.1960 ss         1 9YS      -0.164100
     29 C30         -4.1860    -9.3010    -0.5840 cc         1 9YS       0.426100
     30 N31         -3.0900    -9.4490     0.0590 nd         1 9YS      -0.567100
     31 H1           1.8270    -0.8840    -0.5110 h1         1 9YS       0.066700
     32 H2           3.3630     0.1750    -2.7760 ha         1 9YS       0.133500
     33 H3           1.5430    -0.8370     1.9790 h1         1 9YS       0.027200
     34 H4           3.0550    -0.0890     1.4440 h1         1 9YS       0.027200
     35 H5           2.7110     0.0750    -5.1520 ha         1 9YS       0.129000
     36 H6           0.5550     1.0250    -5.8790 ha         1 9YS       0.128000
     37 H7          -0.9450     2.0820    -4.2320 ha         1 9YS       0.129000
     38 H8          -0.2870     2.1920    -1.8590 ha         1 9YS       0.133500
     39 H9          -2.4040    -5.2020    -1.0230 ha         1 9YS       0.166000
     40 H10         -4.8720     1.7620    -0.4930 h1         1 9YS       0.042033
     41 H11         -4.5500     1.9390     1.2380 h1         1 9YS       0.042033
     42 H12         -5.9910     1.0710     0.6900 h1         1 9YS       0.042033
     43 H13         -0.6170    -9.1640     1.3290 ha         1 9YS       0.146000
     44 H14         -3.8330    -2.4630     0.4220 h4         1 9YS       0.016100
     45 H15          1.0570    -2.4430    -0.0000 ha         1 9YS       0.139000
     46 H16         -0.5000     0.8660    -0.0330 hn         1 9YS       0.495800
     47 H17          0.9100    -4.8320     0.1690 hn         1 9YS       0.457800
     48 H18         -4.6550    -0.8380     0.6480 hn         1 9YS       0.314500
     49 H19          1.5430     2.1310    -0.2640 hc         1 9YS       0.066200
     50 H20          3.0550     1.2950    -0.6440 hc         1 9YS       0.066200
     51 H21          1.9840     1.2600     2.9410 ho         1 9YS       0.403000
     52 H22          0.6340    -7.0780     1.3320 ha         1 9YS       0.134000
     53 H23         -4.9260   -10.0790    -0.7310 h5         1 9YS       0.069800
     54 N8          -0.0910    -4.8060     0.1860 nu         1 9YS      -0.767300
@<TRIPOS>BOND
     1    11    21 1
     2    15    14 ar
     3    15    16 ar
     4    14    13 ar
     5    21    20 1
     6    20    13 1
     7    20    22 2
     8    54    16 1
     9    54     9 1
    10    13    18 ar
    11    16    17 ar
    12    27     9 ar
    13    27    12 ar
    14     9    10 ar
    15    18    17 ar
    16    18    19 1
    17    12    26 ar
    18    10    25 ar
    19    19     1 1
    20    26    25 ar
    21    26    30 1
    22    25    28 1
    23     1    23 1
    24     1     4 1
    25    30    29 2
    26    23     3 1
    27    28    29 1
    28    24     4 1
    29     3     8 ar
    30     3     2 ar
    31     8     7 ar
    32     2     5 ar
    33     7     6 ar
    34     5     6 ar
    35     1    31 1
    36     2    32 1
    37     4    33 1
    38     4    34 1
    39     5    35 1
    40     6    36 1
    41     7    37 1
    42     8    38 1
    43    10    39 1
    44    11    40 1
    45    11    41 1
    46    11    42 1
    47    12    43 1
    48    14    44 1
    49    17    45 1
    50    19    46 1
    51    54    47 1
    52    21    48 1
    53    23    49 1
    54    23    50 1
    55    24    51 1
    56    27    52 1
    57    29    53 1
@<TRIPOS>SUBSTRUCTURE
     1 9YS         1 TEMP              0 ****  ****    0 ROOT
