@<TRIPOS>MOLECULE
9YT
   23    22     1     0     0
SMALL
bcc


@<TRIPOS>ATOM
      1 C01          0.0000     0.0000     0.0000 c3         1 9YT      -0.064100
      2 C02          1.5060     0.0000     0.0000 c          1 9YT       0.575100
      3 O03          2.1140     0.0000     1.0490 o          1 9YT      -0.648100
      4 N04          2.1800    -0.0000    -1.1670 ns         1 9YT      -0.203900
      5 C05          3.6450    -0.0000    -1.1690 c3         1 9YT       0.037000
      6 C06          4.1550    -0.0000    -2.6110 c3         1 9YT      -0.036400
      7 C07          5.6850    -0.0010    -2.6120 c3         1 9YT      -0.194500
      8 N08          6.1750     1.2550    -2.0270 nz         1 9YT       0.078400
      9 C09          6.1860    -0.1240    -4.0270 c          1 9YT       0.953600
     10 O10          6.2190    -1.3260    -4.6250 o          1 9YT      -0.815300
     11 O11          6.5590     0.8570    -4.6250 o          1 9YT      -0.815300
     12 H013        -0.3610    -0.8860    -0.5080 hc         1 9YT       0.026033
     13 H011        -0.3610     0.8830    -0.5130 hc         1 9YT       0.026033
     14 H012        -0.3610     0.0030     1.0210 hc         1 9YT       0.026033
     15 H041         1.6790    -0.0060    -2.0340 hn         1 9YT       0.184500
     16 H051         4.0070     0.8840    -0.6580 h1         1 9YT       0.013200
     17 H052         4.0070    -0.8850    -0.6580 h1         1 9YT       0.013200
     18 H062         3.7930    -0.8850    -3.1210 hc         1 9YT       0.056200
     19 H061         3.7930     0.8840    -3.1220 hc         1 9YT       0.056200
     20 H071         6.0470    -0.8370    -2.0260 hx         1 9YT       0.090700
     21 H082         5.5760     2.0080    -2.3040 hn         1 9YT       0.213467
     22 H1           6.1760     1.1800    -1.0290 hn         1 9YT       0.213467
     23 H083         7.1050     1.4330    -2.3490 hn         1 9YT       0.213467
@<TRIPOS>BOND
     1     1     2 1   
     2     1    12 1   
     3     1    13 1   
     4     1    14 1   
     5     2     3 2   
     6     2     4 1   
     7     4     5 1   
     8     4    15 1   
     9     5     6 1   
    10     5    16 1   
    11     5    17 1   
    12     6     7 1   
    13     6    18 1   
    14     6    19 1   
    15     7     8 1   
    16     7     9 1   
    17     7    20 1   
    18     8    21 1   
    19     8    22 1   
    20     8    23 1   
    21     9    10 1   
    22     9    11 1   
@<TRIPOS>SUBSTRUCTURE
     1 9YT         1 TEMP              0 ****  ****    0 ROOT
