@<TRIPOS>MOLECULE
molecule
   23    22     1     0     0
SMALL
bcc


@<TRIPOS>ATOM
      1 C01          0.0000     0.0000     0.0000 c3         1 9YT      -0.170100
      2 C02          1.5060     0.0000     0.0000 c          1 9YT       0.659100
      3 O03          2.1140     0.0000     1.0490 o          1 9YT      -0.610100
      4 N04          2.1800    -0.0000    -1.1670 ns         1 9YT      -0.590900
      5 C05          3.6450    -0.0000    -1.1690 c3         1 9YT       0.098000
      6 C06          4.1550    -0.0000    -2.6110 c3         1 9YT      -0.110400
      7 C07          5.6850    -0.0010    -2.6120 c3         1 9YT      -0.011500
      8 N08          6.1750     1.2550    -2.0270 nz         1 9YT      -0.794600
      9 C09          6.1860    -0.1240    -4.0270 c          1 9YT       0.867600
     10 O10          6.2190    -1.3260    -4.6250 o          1 9YT      -0.772300
     11 O11          6.5590     0.8570    -4.6250 o          1 9YT      -0.772300
     12 H013        -0.3610    -0.8860    -0.5080 hc         1 9YT       0.065033
     13 H011        -0.3610     0.8830    -0.5130 hc         1 9YT       0.065033
     14 H012        -0.3610     0.0030     1.0210 hc         1 9YT       0.065033
     15 H041         1.6790    -0.0060    -2.0340 hn         1 9YT       0.323500
     16 H051         4.0070     0.8840    -0.6580 h1         1 9YT       0.039700
     17 H052         4.0070    -0.8850    -0.6580 h1         1 9YT       0.039700
     18 H062         3.7930    -0.8850    -3.1210 hc         1 9YT       0.088700
     19 H061         3.7930     0.8840    -3.1220 hc         1 9YT       0.088700
     20 H071         6.0470    -0.8370    -2.0260 hx         1 9YT       0.108700
     21 H082         5.5760     2.0080    -2.3040 hn         1 9YT       0.441467
     22 H1           6.1760     1.1800    -1.0290 hn         1 9YT       0.441467
     23 H083         7.1050     1.4330    -2.3490 hn         1 9YT       0.441467
@<TRIPOS>BOND
     1    11     9 1
     2    10     9 1
     3     9     7 1
     4     6     7 1
     5     6     5 1
     6     7     8 1
     7     5     4 1
     8     4     2 1
     9     2     3 2
    10     2     1 1
    11     1    12 1
    12     1    13 1
    13     1    14 1
    14     4    15 1
    15     5    16 1
    16     5    17 1
    17     6    18 1
    18     6    19 1
    19     7    20 1
    20     8    21 1
    21     8    22 1
    22    23     8 1
@<TRIPOS>SUBSTRUCTURE
     1 9YT         1 TEMP              0 ****  ****    0 ROOT
