@<TRIPOS>MOLECULE
molecule
   65    68     1     0     0
SMALL
bcc


@<TRIPOS>ATOM
      1 C13          0.0000     0.0000     0.0000 ca         1 9YV      -0.146600
      2 C18         -2.8220    -0.0010    -2.5420 c3         1 9YV       0.114700
      3 C16         -0.7400    -0.0000    -1.2770 c          1 9YV       0.668700
      4 C15         -0.0040     0.0050     2.4020 ca         1 9YV      -0.147500
      5 C20         -2.9780     1.4360    -3.0450 c3         1 9YV      -0.092400
      6 C21         -3.7980     2.2400    -2.0340 c3         1 9YV       0.163300
      7 C23         -4.9950     0.2500    -1.3390 c3         1 9YV       0.163300
      8 C24         -4.2100    -0.6130    -2.3290 c3         1 9YV      -0.092400
      9 C11          2.0850     0.0000     1.1930 ca         1 9YV      -0.147500
     10 C12          1.3980     0.0000     0.0000 ca         1 9YV      -0.078000
     11 C34          4.8770    -1.2760    10.2390 ca         1 9YV      -0.107000
     12 C33          5.3150    -1.3660    11.5460 ca         1 9YV      -0.124500
     13 C1           0.4930    -1.9540     6.8610 ca         1 9YV      -0.472900
     14 C2          -0.0910    -2.0050     5.5950 ca         1 9YV       0.527200
     15 N3           0.4500    -1.3660     4.5800 nb         1 9YV      -0.744000
     16 C4           1.5610    -0.6520     4.7090 ca         1 9YV       0.778200
     17 C5           2.2080    -0.5480     5.9340 ca         1 9YV      -0.414300
     18 C6           1.6760    -1.2050     7.0370 ca         1 9YV       0.336600
     19 N7           2.2910    -1.1250     8.2760 nu         1 9YV      -0.762600
     20 N9           2.0860     0.0010     3.6030 nu         1 9YV      -0.728300
     21 C10          1.3890    -0.0010     2.3980 ca         1 9YV       0.161600
     22 C14         -0.6960     0.0040     1.2130 ca         1 9YV      -0.078000
     23 N17         -2.0880    -0.0020    -1.2740 ns         1 9YV      -0.579900
     24 O19         -0.1330    -0.0000    -2.3300 o          1 9YV      -0.598100
     25 N22         -5.1170     1.6150    -1.8660 n3         1 9YV      -0.727600
     26 C25         -5.9820     2.4350    -1.0080 c3         1 9YV       0.153100
     27 N26         -1.3090    -3.2780     7.8450 nz         1 9YV      -0.672400
     28 O27          0.4520    -2.7000     9.0690 o          1 9YV      -0.489100
     29 C28          3.4430    -0.2400     8.4670 c3         1 9YV       0.271100
     30 C29          3.9210    -0.3380     9.8930 ca         1 9YV      -0.139300
     31 C30          3.4020     0.5070    10.8560 ca         1 9YV      -0.107000
     32 C31          3.8410     0.4170    12.1640 ca         1 9YV      -0.124500
     33 C32          4.7930    -0.5240    12.5100 ca         1 9YV      -0.104000
     34 H1          -2.2810    -0.5830    -3.2790 h1         1 9YV       0.085700
     35 H2          -0.8050     0.0280     3.1310 ha         1 9YV       0.146500
     36 H3          -3.4890     1.4300    -4.0000 hc         1 9YV       0.064200
     37 H4          -1.9990     1.8880    -3.1560 hc         1 9YV       0.064200
     38 H5          -3.9230     3.2530    -2.3960 h1         1 9YV       0.030200
     39 H6          -3.2820     2.2520    -1.0810 h1         1 9YV       0.030200
     40 H7          -4.4710     0.2760    -0.3910 h1         1 9YV       0.030200
     41 H8          -5.9830    -0.1710    -1.2000 h1         1 9YV       0.030200
     42 H9          -4.7370    -0.6470    -3.2750 hc         1 9YV       0.064200
     43 H10         -4.1050    -1.6140    -1.9300 hc         1 9YV       0.064200
     44 H11          3.1680    -0.0020     1.1940 ha         1 9YV       0.146500
     45 H12          1.9400     0.0000    -0.9380 ha         1 9YV       0.151500
     46 H13          5.3000    -1.9220     9.4800 ha         1 9YV       0.133000
     47 H14          6.1080    -2.0450    11.8330 ha         1 9YV       0.143500
     48 H15         -1.0000    -2.5760     5.4460 h4         1 9YV      -0.003900
     49 H16          3.1150     0.0370     6.0280 ha         1 9YV       0.167000
     50 H17          1.9590    -1.6850     9.0360 hn         1 9YV       0.479800
     51 H18          2.9550     0.4920     3.6780 hn         1 9YV       0.473800
     52 H19         -1.7790     0.0080     1.2160 ha         1 9YV       0.151500
     53 H20         -2.5870    -0.0090    -0.4070 hn         1 9YV       0.310500
     54 H22         -6.1790     3.3830    -1.4950 h1         1 9YV       0.032700
     55 H23         -5.4890     2.6120    -0.0600 h1         1 9YV       0.032700
     56 H24         -6.9180     1.9160    -0.8370 h1         1 9YV       0.032700
     57 H25         -1.2200    -4.0210     7.1810 hn         1 9YV       0.474133
     58 H26         -1.5980    -3.6510     8.7270 hn         1 9YV       0.474133
     59 H27          3.1520     0.7820     8.2540 h1         1 9YV       0.060200
     60 H28          4.2410    -0.5360     7.7980 h1         1 9YV       0.060200
     61 H29          2.6720     1.2590    10.5810 ha         1 9YV       0.133000
     62 H30          3.4400     1.0840    12.9170 ha         1 9YV       0.143500
     63 H31          5.1590    -0.5650    13.5290 ha         1 9YV       0.144000
     64 H263        -1.9770    -2.6110     7.5120 hn         1 9YV       0.474133
     65 C8          -0.1190    -2.6650     7.9960 c          1 9YV       0.518700
@<TRIPOS>BOND
     1    27    65 1
     2    65    28 2
     3    65    13 1
     4    14    13 ar
     5    14    15 ar
     6    13    18 ar
     7    15    16 ar
     8    18    19 1
     9    18    17 ar
    10    16    17 ar
    11    16    20 1
    12    19    29 1
    13    20    21 1
    14    29    30 1
    15    31    30 ar
    16    31    32 ar
    17    21     9 ar
    18    21     4 ar
    19     9    10 ar
    20    30    11 ar
    21    32    33 ar
    22     4    22 ar
    23    10     1 ar
    24    11    12 ar
    25    33    12 ar
    26    22     1 ar
    27     1     3 1
    28     3    24 2
    29     3    23 1
    30    23     2 1
    31     6     5 1
    32     6    25 1
    33     5     2 1
    34     2     8 1
    35    26    25 1
    36     7    25 1
    37     7     8 1
    38     2    34 1
    39     4    35 1
    40     5    36 1
    41     5    37 1
    42     6    38 1
    43     6    39 1
    44     7    40 1
    45     7    41 1
    46     8    42 1
    47     8    43 1
    48     9    44 1
    49    10    45 1
    50    11    46 1
    51    12    47 1
    52    14    48 1
    53    17    49 1
    54    19    50 1
    55    20    51 1
    56    22    52 1
    57    23    53 1
    58    26    54 1
    59    26    55 1
    60    26    56 1
    61    27    57 1
    62    27    58 1
    63    29    59 1
    64    29    60 1
    65    31    61 1
    66    32    62 1
    67    33    63 1
    68    64    27 1
@<TRIPOS>SUBSTRUCTURE
     1 9YV         1 TEMP              0 ****  ****    0 ROOT
