@<TRIPOS>MOLECULE
molecule
   29    29     1     0     0
SMALL
bcc


@<TRIPOS>ATOM
      1 C10          0.0000     0.0000     0.0000 c          1 9YW       0.897600
      2 C01          4.0070     3.6750     1.2330 c3         1 9YW       0.150400
      3 C02          3.4160     2.3760     1.7870 c3         1 9YW       0.149100
      4 C03          3.8120     2.2220     3.2580 c3         1 9YW       0.115100
      5 C04          3.2690     0.8930     3.7880 c3         1 9YW       0.117100
      6 C05          3.8030    -0.2490     2.9180 c3         1 9YW       0.123100
      7 C06          3.4080     0.0010     1.4610 c3         1 9YW       0.309900
      8 C09          1.5070     0.0000     0.0000 c3         1 9YW       0.019400
      9 O07          3.9190     1.2670     1.0400 os         1 9YW      -0.434600
     10 O08          1.9830     0.0000     1.3480 os         1 9YW      -0.397600
     11 O11         -0.6710    -0.0010    -1.1620 o          1 9YW      -0.836800
     12 O12         -0.6050    -0.0050     1.0460 o          1 9YW      -0.836800
     13 O13          3.2450    -1.4880     3.3590 oh         1 9YW      -0.571800
     14 O14          3.6970     0.7050     5.1380 oh         1 9YW      -0.626800
     15 O15          3.2620     3.3000     4.0170 oh         1 9YW      -0.606800
     16 O16          3.5420     3.8780    -0.1030 oh         1 9YW      -0.584800
     17 H1           5.0880     3.6080     1.2320 h1         1 9YW       0.021200
     18 H2           3.6970     4.5060     1.8540 h1         1 9YW       0.021200
     19 H4           4.8920     2.2290     3.3420 h1         1 9YW       0.032700
     20 H5           2.1860     0.9030     3.7440 h1         1 9YW       0.101700
     21 H6           4.8830    -0.2850     2.9960 h1         1 9YW       0.034700
     22 H7           3.8250    -0.7800     0.8370 h2         1 9YW       0.067700
     23 H8           1.8680     0.8850    -0.5110 h1         1 9YW       0.023200
     24 H9           1.8680    -0.8850    -0.5110 h1         1 9YW       0.023200
     25 H11          3.9400    -2.1040     3.5230 ho         1 9YW       0.388000
     26 H12          2.9410     0.5960     5.6910 ho         1 9YW       0.410000
     27 H13          3.8700     3.6150     4.6650 ho         1 9YW       0.400000
     28 H14          3.8710     4.7000    -0.4290 ho         1 9YW       0.387000
     29 H3           2.3360     2.4030     1.7070 h1         1 9YW       0.104700
@<TRIPOS>BOND
     1    12     1 1
     2     1    11 1
     3     1     8 1
     4     8    10 1
     5    10     7 1
     6     9     3 1
     7     9     7 1
     8     3     2 1
     9     3     4 1
    10     2    16 1
    11     7     6 1
    12    15     4 1
    13     4     5 1
    14     5     6 1
    15     5    14 1
    16     6    13 1
    17     2    17 1
    18     2    18 1
    19     3    29 1
    20     4    19 1
    21     5    20 1
    22     6    21 1
    23     7    22 1
    24     8    23 1
    25     8    24 1
    26    13    25 1
    27    14    26 1
    28    15    27 1
    29    16    28 1
@<TRIPOS>SUBSTRUCTURE
     1 9YW         1 TEMP              0 ****  ****    0 ROOT
