@<TRIPOS>MOLECULE
molecule
   34    35     1     0     0
SMALL
bcc


@<TRIPOS>ATOM
      1 C1           0.0000     0.0000     0.0000 c3         1 9YZ      -0.159400
      2 C2           1.5310     0.0000     0.0000 c3         1 9YZ      -0.077100
      3 C4          -3.8070     1.2430     0.8380 c3         1 9YZ       0.085000
      4 C6          -7.9710     1.4790     1.5130 c3         1 9YZ       0.157700
      5 C7          -2.2970     0.1880     2.9870 ca         1 9YZ       0.027600
      6 C9          -4.0640     0.7270     4.5290 ca         1 9YZ      -0.138000
      7 C10         -3.2430     0.3690     5.5830 ca         1 9YZ      -0.133000
      8 C12         -1.4830    -0.1710     4.0480 ca         1 9YZ      -0.138000
      9 O2          -6.2420     0.9730     3.4220 o          1 9YZ      -0.595000
     10 O1          -6.5450     1.3710     1.2600 os         1 9YZ      -0.442900
     11 N1          -4.4210     0.9950     2.1510 n          1 9YZ      -0.362000
     12 C3          -2.7920     0.1230     0.5640 c3         1 9YZ       0.081000
     13 C8          -3.5950     0.6370     3.2280 ca         1 9YZ       0.034600
     14 C11         -1.9570    -0.0790     5.3430 ca         1 9YZ      -0.131000
     15 N           -1.8230     0.1010     1.6690 n          1 9YZ      -0.380000
     16 C           -0.5020     0.0000     1.4210 c          1 9YZ       0.665100
     17 O            0.2830    -0.0920     2.3410 o          1 9YZ      -0.591100
     18 H1          -0.3610    -0.8850    -0.5110 hc         1 9YZ       0.059700
     19 H2          -0.3610     0.8850    -0.5110 hc         1 9YZ       0.059700
     20 H3           1.8920    -0.8990     0.4860 hc         1 9YZ       0.046033
     21 H4           1.8920     0.8700     0.5350 hc         1 9YZ       0.046033
     22 H5           1.8920     0.0290    -1.0210 hc         1 9YZ       0.046033
     23 H6          -4.5720     1.2370     0.0720 h1         1 9YZ       0.070700
     24 H7          -3.3000     2.2000     0.8490 h1         1 9YZ       0.070700
     25 H8          -8.1520     2.2750     2.2250 h1         1 9YZ       0.052033
     26 H9          -8.4860     1.6990     0.5860 h1         1 9YZ       0.052033
     27 H10         -8.3380     0.5430     1.9170 h1         1 9YZ       0.052033
     28 H11         -5.0710     1.0780     4.7200 ha         1 9YZ       0.195000
     29 H12         -3.6100     0.4380     6.6000 ha         1 9YZ       0.133000
     30 H13         -0.4750    -0.5220     3.8640 ha         1 9YZ       0.193000
     31 H14         -2.2700     0.3390    -0.3600 h1         1 9YZ       0.066200
     32 H15         -3.3140    -0.8260     0.5310 h1         1 9YZ       0.066200
     33 H16         -1.3190    -0.3580     6.1730 ha         1 9YZ       0.133000
     34 C5          -5.7550     1.1080     2.3170 c          1 9YZ       0.758100
@<TRIPOS>BOND
     1     2     1 1
     2     1    16 1
     3    17    16 2
     4    16    15 1
     5     8    14 ar
     6     8     5 ar
     7    14     7 ar
     8    15     5 1
     9    15    12 1
    10     5    13 ar
    11    12     3 1
    12     7     6 ar
    13    13     6 ar
    14    13    11 1
    15     3    11 1
    16    11    34 1
    17    34     9 2
    18    34    10 1
    19    10     4 1
    20     1    18 1
    21     1    19 1
    22     2    20 1
    23     2    21 1
    24     2    22 1
    25     3    23 1
    26     3    24 1
    27     4    25 1
    28     4    26 1
    29     4    27 1
    30     6    28 1
    31     7    29 1
    32     8    30 1
    33    12    31 1
    34    12    32 1
    35    14    33 1
@<TRIPOS>SUBSTRUCTURE
     1 9YZ         1 TEMP              0 ****  ****    0 ROOT
