@<TRIPOS>MOLECULE
9YZ
   34    35     1     0     0
SMALL
bcc


@<TRIPOS>ATOM
      1 C1           0.0000     0.0000     0.0000 c3         1 9YZ      -0.105400
      2 C2           1.5310     0.0000     0.0000 c3         1 9YZ       0.021900
      3 C4          -3.8070     1.2430     0.8380 c3         1 9YZ       0.015000
      4 C6          -7.9710     1.4790     1.5130 c3         1 9YZ       0.286700
      5 C7          -2.2970     0.1880     2.9870 ca         1 9YZ      -0.103400
      6 C9          -4.0640     0.7270     4.5290 ca         1 9YZ      -0.131000
      7 C10         -3.2430     0.3690     5.5830 ca         1 9YZ      -0.097000
      8 C12         -1.4830    -0.1710     4.0480 ca         1 9YZ      -0.131000
      9 O2          -6.2420     0.9730     3.4220 o          1 9YZ      -0.640000
     10 O1          -6.5450     1.3710     1.2600 os         1 9YZ      -0.430900
     11 N1          -4.4210     0.9950     2.1510 n          1 9YZ       0.037000
     12 C3          -2.7920     0.1230     0.5640 c3         1 9YZ       0.010000
     13 C8          -3.5950     0.6370     3.2280 ca         1 9YZ      -0.106400
     14 C11         -1.9570    -0.0790     5.3430 ca         1 9YZ      -0.096000
     15 N           -1.8230     0.1010     1.6690 n          1 9YZ       0.011000
     16 C           -0.5020     0.0000     1.4210 c          1 9YZ       0.577100
     17 O            0.2830    -0.0920     2.3410 o          1 9YZ      -0.626100
     18 H1          -0.3610    -0.8850    -0.5110 hc         1 9YZ       0.027700
     19 H2          -0.3610     0.8850    -0.5110 hc         1 9YZ       0.027700
     20 H3           1.8920    -0.8990     0.4860 hc         1 9YZ       0.010367
     21 H4           1.8920     0.8700     0.5350 hc         1 9YZ       0.010367
     22 H5           1.8920     0.0290    -1.0210 hc         1 9YZ       0.010367
     23 H6          -4.5720     1.2370     0.0720 h1         1 9YZ       0.040200
     24 H7          -3.3000     2.2000     0.8490 h1         1 9YZ       0.040200
     25 H8          -8.1520     2.2750     2.2250 h1         1 9YZ       0.001700
     26 H9          -8.4860     1.6990     0.5860 h1         1 9YZ       0.001700
     27 H10         -8.3380     0.5430     1.9170 h1         1 9YZ       0.001700
     28 H11         -5.0710     1.0780     4.7200 ha         1 9YZ       0.182000
     29 H12         -3.6100     0.4380     6.6000 ha         1 9YZ       0.103000
     30 H13         -0.4750    -0.5220     3.8640 ha         1 9YZ       0.179000
     31 H14         -2.2700     0.3390    -0.3600 h1         1 9YZ       0.039200
     32 H15         -3.3140    -0.8260     0.5310 h1         1 9YZ       0.039200
     33 H16         -1.3190    -0.3580     6.1730 ha         1 9YZ       0.103000
     34 C5          -5.7550     1.1080     2.3170 c          1 9YZ       0.687100
@<TRIPOS>BOND
     1     1     2 1   
     2     1    16 1   
     3     1    18 1   
     4     1    19 1   
     5     2    20 1   
     6     2    21 1   
     7     2    22 1   
     8     3    11 1   
     9     3    12 1   
    10     3    23 1   
    11     3    24 1   
    12     4    10 1   
    13     4    25 1   
    14     4    26 1   
    15     4    27 1   
    16     5     8 ar  
    17     5    13 ar  
    18     5    15 1   
    19     6     7 ar  
    20     6    13 ar  
    21     6    28 1   
    22     7    14 ar  
    23     7    29 1   
    24     8    14 ar  
    25     8    30 1   
    26     9    34 2   
    27    10    34 1   
    28    11    13 1   
    29    11    34 1   
    30    12    15 1   
    31    12    31 1   
    32    12    32 1   
    33    14    33 1   
    34    15    16 1   
    35    16    17 2   
@<TRIPOS>SUBSTRUCTURE
     1 9YZ         1 TEMP              0 ****  ****    0 ROOT
