@<TRIPOS>MOLECULE
molecule
   24    24     1     0     0
SMALL
bcc


@<TRIPOS>ATOM
      1 O01          0.0000     0.0000     0.0000 o          1 9Z0      -0.586100
      2 C02          1.2170     0.0000     0.0000 c          1 9Z0       0.702700
      3 N03          1.8900     0.0000     1.1680 ns         1 9Z0      -0.587900
      4 C04          1.1570     0.0000     2.4370 c3         1 9Z0       0.115000
      5 C05          2.1500     0.0000     3.6000 c3         1 9Z0      -0.102400
      6 C06          1.3840     0.0010     4.9250 c3         1 9Z0       0.146400
      7 O07          2.3110     0.0000     6.0110 oh         1 9Z0      -0.610800
      8 C08          1.9500    -0.0060    -1.2680 cc         1 9Z0      -0.178900
      9 C09          1.3950    -0.0110    -2.5310 cd         1 9Z0      -0.088000
     10 C10          2.4530    -0.0160    -3.4450 cd         1 9Z0      -0.074900
     11 Br1          2.2940    -0.0250    -5.3300 br         1 9Z0      -0.049100
     12 C12          3.6120    -0.0120    -2.7420 cc         1 9Z0      -0.011200
     13 Br2          5.3510    -0.0150    -3.4850 br         1 9Z0      -0.024100
     14 N14          3.3200    -0.0010    -1.4170 na         1 9Z0      -0.134100
     15 H03          2.8910     0.0070     1.1690 hn         1 9Z0       0.305500
     16 H041         0.5340    -0.8840     2.4940 h1         1 9Z0       0.057700
     17 H042         0.5340     0.8850     2.4930 h1         1 9Z0       0.057700
     18 H051         2.7720    -0.8840     3.5430 hc         1 9Z0       0.057700
     19 H052         2.7730     0.8850     3.5430 hc         1 9Z0       0.057700
     20 H061         0.7620     0.8850     4.9820 h1         1 9Z0       0.024700
     21 H062         0.7610    -0.8840     4.9820 h1         1 9Z0       0.024700
     22 H07          1.8390     0.0010     6.8270 ho         1 9Z0       0.407000
     23 H09          0.3490    -0.1690    -2.7670 ha         1 9Z0       0.185000
     24 H14          3.9880     0.0040    -0.6720 hn         1 9Z0       0.306700
@<TRIPOS>BOND
     1     1     2 2
     2     2     3 1
     3     2     8 1
     4     3     4 1
     5     4     5 1
     6     5     6 1
     7     6     7 1
     8     8     9 2
     9     8    14 1
    10     9    10 1
    11    10    11 1
    12    10    12 2
    13    12    13 1
    14    12    14 1
    15     3    15 1
    16     4    16 1
    17     4    17 1
    18     5    18 1
    19     5    19 1
    20     6    20 1
    21     6    21 1
    22     7    22 1
    23     9    23 1
    24    14    24 1
@<TRIPOS>SUBSTRUCTURE
     1 9Z0         1 TEMP              0 ****  ****    0 ROOT
