@<TRIPOS>MOLECULE
9Z1
   55    59     1     0     0
SMALL
bcc


@<TRIPOS>ATOM
      1 C11          0.0000     0.0000     0.0000 c3         1 9Z1      -0.025600
      2 C10          1.1820    -0.0010     2.4170 c2         1 9Z1      -0.161000
      3 C12          2.0410    -1.2480    -0.7220 c3         1 9Z1      -0.025600
      4 C1           3.7720     2.8150    -0.4100 ca         1 9Z1      -0.005400
      5 C13          1.5110     2.5490    -0.0890 c3         1 9Z1       0.227000
      6 C18         -0.1290     2.7920    -1.9380 c          1 9Z1       0.637700
      7 C2           5.0740     3.2920    -0.2700 ca         1 9Z1      -0.054000
      8 C20          0.7490     1.9260    -2.7590 ce         1 9Z1       0.042900
      9 C22          1.7240     1.2290    -2.1960 c2         1 9Z1      -0.154200
     10 C23         -0.5350     3.4180     0.4270 ce         1 9Z1      -0.227600
     11 C24         -1.6880     4.1240     0.3400 cf         1 9Z1      -0.097800
     12 C25         -2.2770     4.7190     1.5470 cd         1 9Z1       0.316100
     13 C26         -3.3820     5.5230     1.5940 cc         1 9Z1      -0.419600
     14 C28         -2.5920     5.2460     3.6240 cc         1 9Z1       0.190400
     15 C3           6.0980     2.3580    -0.3120 ca         1 9Z1      -0.097000
     16 C30          0.1540     3.0260     1.6640 c          1 9Z1       0.616700
     17 C4           5.8530     1.0120    -0.4840 ca         1 9Z1      -0.098000
     18 C5           4.5580     0.5230    -0.6260 ca         1 9Z1      -0.080000
     19 C6           3.5360     1.4450    -0.5880 ca         1 9Z1      -0.116300
     20 C7           2.0400     1.2500    -0.7210 c3         1 9Z1       0.021500
     21 C8           1.5300     0.0000     0.0000 c3         1 9Z1       0.009200
     22 C9           2.0330     0.0000     1.4210 c2         1 9Z1      -0.176200
     23 N14          2.5750     3.5270    -0.3930 nh         1 9Z1      -0.196500
     24 N17          0.2180     2.9290    -0.6440 n          1 9Z1       0.027000
     25 N27         -3.5740     5.8480     2.9030 na         1 9Z1       0.244100
     26 N29         -1.8240     4.5700     2.8180 nd         1 9Z1      -0.529000
     27 N32          1.3330     2.4420     1.3560 ns         1 9Z1      -0.240900
     28 O15          2.3350     4.1780    -1.6810 os         1 9Z1      -0.280100
     29 O21          0.5520     1.8470    -4.1020 oh         1 9Z1      -0.477100
     30 O31         -0.2710     3.2010     2.7910 o          1 9Z1      -0.573500
     31 H1          -0.3610    -0.0050    -1.0210 hc         1 9Z1       0.020033
     32 H2          -0.3610    -0.8820     0.5150 hc         1 9Z1       0.020033
     33 H3          -0.3610     0.8870     0.5060 hc         1 9Z1       0.020033
     34 H4           0.1170    -0.0010     2.2190 ha         1 9Z1       0.101500
     35 H5           1.5430    -0.0010     3.4380 ha         1 9Z1       0.101500
     36 H6           2.7600    -1.7590    -0.0940 hc         1 9Z1       0.020033
     37 H7           2.5150    -0.9590    -1.6520 hc         1 9Z1       0.020033
     38 H8           1.2100    -1.9100    -0.9310 hc         1 9Z1       0.020033
     39 H9           2.4250     5.9260    -0.5920 h1         1 9Z1       0.000700
     40 H10          1.1680     5.8710    -1.8360 h1         1 9Z1       0.000700
     41 H11          2.8630     6.0730    -2.3000 h1         1 9Z1       0.000700
     42 H12          5.2780     4.3480    -0.1350 ha         1 9Z1       0.116000
     43 H13          2.3340     0.6040    -2.8360 ha         1 9Z1       0.128000
     44 H14         -2.1940     4.2200    -0.6130 ha         1 9Z1       0.139000
     45 H15         -3.9880     5.8380     0.7540 h4         1 9Z1       0.154000
     46 H16         -2.4720     5.3120     4.6990 h5         1 9Z1       0.023100
     47 H17          7.1220     2.6960    -0.2060 ha         1 9Z1       0.104000
     48 H18          6.6860     0.3200    -0.5110 ha         1 9Z1       0.104000
     49 H19          4.3630    -0.5340    -0.7610 ha         1 9Z1       0.126000
     50 H20          3.0980     0.0000     1.6190 ha         1 9Z1       0.114000
     51 H21         -4.3030     6.4280     3.2680 hn         1 9Z1       0.117700
     52 H23          1.9720     2.0220     2.0020 hn         1 9Z1       0.241500
     53 H24          0.9550     2.5880    -4.5230 ho         1 9Z1       0.410000
     54 O19         -1.1050     3.3470    -2.4050 o          1 9Z1      -0.646500
     55 C16          2.1890     5.5980    -1.5970 c3         1 9Z1       0.248700
@<TRIPOS>BOND
     1     1    21 1   
     2     1    31 1   
     3     1    32 1   
     4     1    33 1   
     5     2    22 2   
     6     2    34 1   
     7     2    35 1   
     8     3    21 1   
     9     3    36 1   
    10     3    37 1   
    11     3    38 1   
    12     4     7 ar  
    13     4    19 ar  
    14     4    23 1   
    15     5    20 1   
    16     5    23 1   
    17     5    24 1   
    18     5    27 1   
    19     6     8 1   
    20     6    24 1   
    21     6    54 2   
    22     7    15 ar  
    23     7    42 1   
    24     8     9 2   
    25     8    29 1   
    26     9    20 1   
    27     9    43 1   
    28    10    11 2   
    29    10    16 1   
    30    10    24 1   
    31    11    12 1   
    32    11    44 1   
    33    12    13 2   
    34    12    26 1   
    35    13    25 1   
    36    13    45 1   
    37    14    25 1   
    38    14    26 2   
    39    14    46 1   
    40    15    17 ar  
    41    15    47 1   
    42    16    27 1   
    43    16    30 2   
    44    17    18 ar  
    45    17    48 1   
    46    18    19 ar  
    47    18    49 1   
    48    19    20 1   
    49    20    21 1   
    50    21    22 1   
    51    22    50 1   
    52    23    28 1   
    53    25    51 1   
    54    27    52 1   
    55    28    55 1   
    56    29    53 1   
    57    39    55 1   
    58    40    55 1   
    59    41    55 1   
@<TRIPOS>SUBSTRUCTURE
     1 9Z1         1 TEMP              0 ****  ****    0 ROOT
