@<TRIPOS>MOLECULE
molecule
   55    59     1     0     0
SMALL
bcc


@<TRIPOS>ATOM
      1 C11          0.0000     0.0000     0.0000 c3         1 9Z1      -0.089600
      2 C10          1.1820    -0.0010     2.4170 c2         1 9Z1      -0.208000
      3 C12          2.0410    -1.2480    -0.7220 c3         1 9Z1      -0.089600
      4 C1           3.7720     2.8150    -0.4100 ca         1 9Z1       0.067600
      5 C13          1.5110     2.5490    -0.0890 c3         1 9Z1       0.514000
      6 C18         -0.1290     2.7920    -1.9380 c          1 9Z1       0.725700
      7 C2           5.0740     3.2920    -0.2700 ca         1 9Z1      -0.081000
      8 C20          0.7490     1.9260    -2.7590 ce         1 9Z1       0.025900
      9 C22          1.7240     1.2290    -2.1960 c2         1 9Z1      -0.133200
     10 C23         -0.5350     3.4180     0.4270 cf         1 9Z1      -0.066600
     11 C24         -1.6880     4.1240     0.3400 ce         1 9Z1      -0.147800
     12 C25         -2.2770     4.7190     1.5470 cc         1 9Z1       0.339100
     13 C26         -3.3820     5.5230     1.5940 cd         1 9Z1      -0.247600
     14 C28         -2.5920     5.2460     3.6240 cd         1 9Z1       0.381400
     15 C3           6.0980     2.3580    -0.3120 ca         1 9Z1      -0.125000
     16 C30          0.1540     3.0260     1.6640 c          1 9Z1       0.688700
     17 C4           5.8530     1.0120    -0.4840 ca         1 9Z1      -0.126000
     18 C5           4.5580     0.5230    -0.6260 ca         1 9Z1      -0.104000
     19 C6           3.5360     1.4450    -0.5880 ca         1 9Z1      -0.113300
     20 C7           2.0400     1.2500    -0.7210 c3         1 9Z1      -0.002500
     21 C8           1.5300     0.0000     0.0000 c3         1 9Z1      -0.000800
     22 C9           2.0330     0.0000     1.4210 c2         1 9Z1      -0.184200
     23 N14          2.5750     3.5270    -0.3930 nh         1 9Z1      -0.387500
     24 N17          0.2180     2.9290    -0.6440 n          1 9Z1      -0.374000
     25 N27         -3.5740     5.8480     2.9030 na         1 9Z1      -0.301900
     26 N29         -1.8240     4.5700     2.8180 nc         1 9Z1      -0.622000
     27 N32          1.3330     2.4420     1.3560 ns         1 9Z1      -0.580900
     28 O15          2.3350     4.1780    -1.6810 os         1 9Z1      -0.233100
     29 O21          0.5520     1.8470    -4.1020 oh         1 9Z1      -0.491100
     30 O31         -0.2710     3.2010     2.7910 o          1 9Z1      -0.534500
     31 H1          -0.3610     0.8520     0.5630 hc         1 9Z1       0.043700
     32 H2          -0.3610     0.0610    -1.0200 hc         1 9Z1       0.043700
     33 H3          -0.3610    -0.9130     0.4570 hc         1 9Z1       0.043700
     34 H4           1.5430    -0.0010     3.4380 ha         1 9Z1       0.125000
     35 H5           0.1170    -0.0010     2.2190 ha         1 9Z1       0.125000
     36 H6           2.7090    -1.7950    -0.0680 hc         1 9Z1       0.043700
     37 H7           2.5740    -0.9550    -1.6180 hc         1 9Z1       0.043700
     38 H8           1.2020    -1.8790    -0.9900 hc         1 9Z1       0.043700
     39 H9           1.2620     5.8940    -2.0740 h1         1 9Z1       0.043700
     40 H10          2.1720     5.8980    -0.5570 h1         1 9Z1       0.043700
     41 H11          3.0210     6.0770    -2.0980 h1         1 9Z1       0.043700
     42 H12          5.2780     4.3480    -0.1350 ha         1 9Z1       0.149000
     43 H13          2.3340     0.6040    -2.8360 ha         1 9Z1       0.151000
     44 H14         -2.1060     4.3550    -0.6320 ha         1 9Z1       0.169000
     45 H15         -3.9880     5.8380     0.7540 h4         1 9Z1       0.177000
     46 H16         -2.4720     5.3120     4.6990 h5         1 9Z1       0.065100
     47 H17          7.1220     2.6960    -0.2060 ha         1 9Z1       0.134000
     48 H18          6.6860     0.3200    -0.5110 ha         1 9Z1       0.132000
     49 H19          4.3630    -0.5340    -0.7610 ha         1 9Z1       0.145000
     50 H20          3.0980     0.0000     1.6190 ha         1 9Z1       0.130000
     51 H21         -4.3030     6.4280     3.2680 hn         1 9Z1       0.294700
     52 H23          1.9710     2.0210     2.0020 hn         1 9Z1       0.372500
     53 H24         -0.1830     1.2830    -4.2800 ho         1 9Z1       0.424000
     54 O19         -1.1050     3.3470    -2.4050 o          1 9Z1      -0.609500
     55 C16          2.1890     5.5980    -1.5970 c3         1 9Z1       0.121700
@<TRIPOS>BOND
     1    54     6 2
     2    29     8 1
     3     1    21 1
     4     3    21 1
     5     6     8 1
     6     6    24 1
     7     8     9 2
     8    11    12 1
     9    11    10 2
    10    12    13 2
    11    12    26 1
    12    13    25 1
    13    26    14 2
    14    25    14 1
    15    21    20 1
    16    21    22 1
    17     9    20 1
    18    24    10 1
    19    24     5 1
    20    10    16 1
    21    20     5 1
    22    20    19 1
    23    22     2 2
    24     5    27 1
    25     5    23 1
    26    16    30 2
    27    16    27 1
    28    19    18 ar
    29    19     4 ar
    30    23    28 1
    31    23     4 1
    32    28    55 1
    33    18    17 ar
    34     4     7 ar
    35    17    15 ar
    36     7    15 ar
    37     1    31 1
    38     1    32 1
    39     1    33 1
    40     2    34 1
    41     2    35 1
    42     3    36 1
    43     3    37 1
    44     3    38 1
    45    55    39 1
    46    55    40 1
    47    55    41 1
    48     7    42 1
    49     9    43 1
    50    11    44 1
    51    13    45 1
    52    14    46 1
    53    15    47 1
    54    17    48 1
    55    18    49 1
    56    22    50 1
    57    25    51 1
    58    27    52 1
    59    29    53 1
@<TRIPOS>SUBSTRUCTURE
     1 9Z1         1 TEMP              0 ****  ****    0 ROOT
