@<TRIPOS>MOLECULE
molecule
   30    31     1     0     0
SMALL
bcc


@<TRIPOS>ATOM
      1 N1           0.0000     0.0000     0.0000 nb         1 9Z2      -0.735500
      2 C2           7.2180    -1.5740    -6.2590 c3         1 9Z2      -0.077100
      3 C4           4.1150    -0.0030    -2.5190 ca         1 9Z2      -0.162000
      4 C5           3.4450    -0.0020    -1.3150 ca         1 9Z2      -0.067000
      5 C6           2.0120    -0.0020    -3.6940 ca         1 9Z2      -0.162000
      6 O            5.7420    -1.2090    -4.0850 o          1 9Z2      -0.589100
      7 C            5.2460    -0.6750    -5.0540 c          1 9Z2       0.657100
      8 C1           5.9280    -0.7630    -6.3950 c3         1 9Z2      -0.160400
      9 C3           3.4020    -0.0030    -3.7130 ca         1 9Z2       0.071600
     10 C7           1.3370    -0.0010    -2.4930 ca         1 9Z2      -0.067000
     11 C8           2.0500    -0.0010    -1.2940 cp         1 9Z2      -0.167500
     12 C9           1.3270     0.0000     0.0000 cp         1 9Z2       0.750500
     13 N2           2.0210     0.0000     1.1290 nb         1 9Z2      -0.735500
     14 C12          1.4070     0.0000     2.3000 ca         1 9Z2       0.462700
     15 C11          0.0200     0.0000     2.3370 ca         1 9Z2      -0.395600
     16 C10         -0.6740     0.0010     1.1360 ca         1 9Z2       0.462700
     17 H1           6.9880    -2.5510    -5.8500 hc         1 9Z2       0.045700
     18 H2           7.6770    -1.6890    -7.2330 hc         1 9Z2       0.045700
     19 H3           7.9010    -1.0570    -5.5960 hc         1 9Z2       0.045700
     20 H4           5.1990    -0.0030    -2.5360 ha         1 9Z2       0.150000
     21 H5           4.0010    -0.0020    -0.3850 ha         1 9Z2       0.156500
     22 H6           1.4590    -0.0020    -4.6260 ha         1 9Z2       0.150000
     23 H7           6.1640     0.2350    -6.7460 hc         1 9Z2       0.060200
     24 H8           5.2690    -1.2480    -7.1050 hc         1 9Z2       0.060200
     25 H9           3.7310     0.5300    -5.7020 hn         1 9Z2       0.324500
     26 H10          0.2540     0.0000    -2.4800 ha         1 9Z2       0.156500
     27 H11          1.9790    -0.0000     3.2200 h4         1 9Z2       0.029100
     28 H12         -0.5090     0.0000     3.2820 ha         1 9Z2       0.145000
     29 H13         -1.7570     0.0010     1.1300 h4         1 9Z2       0.029100
     30 N            4.0840    -0.0030    -4.9320 ns         1 9Z2      -0.482100
@<TRIPOS>BOND
     1     6     7 2
     2     2     8 1
     3     8     7 1
     4     7    30 1
     5     3     4 ar
     6     3     9 ar
     7     4    11 ar
     8    30     9 1
     9     1    16 ar
    10     1    12 ar
    11     9     5 ar
    12    16    15 ar
    13    11    12 1
    14    11    10 ar
    15    12    13 ar
    16     5    10 ar
    17    15    14 ar
    18    13    14 ar
    19     2    17 1
    20     2    18 1
    21     2    19 1
    22     3    20 1
    23     4    21 1
    24     5    22 1
    25     8    23 1
    26     8    24 1
    27    30    25 1
    28    10    26 1
    29    14    27 1
    30    15    28 1
    31    16    29 1
@<TRIPOS>SUBSTRUCTURE
     1 9Z2         1 TEMP              0 ****  ****    0 ROOT
