@<TRIPOS>MOLECULE
9Z2
   30    31     1     0     0
SMALL
bcc


@<TRIPOS>ATOM
      1 N1           0.0000     0.0000     0.0000 nb         1 9Z2      -0.621000
      2 C2           7.2180    -1.5740    -6.2590 c3         1 9Z2       0.020900
      3 C4           4.1150    -0.0030    -2.5190 ca         1 9Z2      -0.135500
      4 C5           3.4450    -0.0020    -1.3150 ca         1 9Z2      -0.042000
      5 C6           2.0120    -0.0020    -3.6940 ca         1 9Z2      -0.135500
      6 O            5.7420    -1.2090    -4.0850 o          1 9Z2      -0.629100
      7 C            5.2460    -0.6750    -5.0540 c          1 9Z2       0.558100
      8 C1           5.9280    -0.7630    -6.3950 c3         1 9Z2      -0.098400
      9 C3           3.4020    -0.0030    -3.7130 ca         1 9Z2      -0.075400
     10 C7           1.3370    -0.0010    -2.4930 ca         1 9Z2      -0.042000
     11 C8           2.0500    -0.0010    -1.2940 cp         1 9Z2      -0.182500
     12 C9           1.3270     0.0000     0.0000 cp         1 9Z2       0.671500
     13 N2           2.0210     0.0000     1.1290 nb         1 9Z2      -0.621000
     14 C12          1.4070     0.0000     2.3000 ca         1 9Z2       0.445700
     15 C11          0.0200     0.0000     2.3370 ca         1 9Z2      -0.359600
     16 C10         -0.6740     0.0010     1.1360 ca         1 9Z2       0.445700
     17 H1           6.9880    -2.5510    -5.8500 hc         1 9Z2       0.010033
     18 H2           7.6770    -1.6890    -7.2330 hc         1 9Z2       0.010033
     19 H3           7.9010    -1.0570    -5.5960 hc         1 9Z2       0.010033
     20 H4           5.1990    -0.0030    -2.5360 ha         1 9Z2       0.127000
     21 H5           4.0010    -0.0020    -0.3850 ha         1 9Z2       0.124000
     22 H6           1.4590    -0.0020    -4.6260 ha         1 9Z2       0.127000
     23 H7           6.1640     0.2350    -6.7460 hc         1 9Z2       0.025200
     24 H8           5.2690    -1.2480    -7.1050 hc         1 9Z2       0.025200
     25 H9           3.7310     0.5300    -5.7020 hn         1 9Z2       0.167500
     26 H10          0.2540     0.0000    -2.4800 ha         1 9Z2       0.124000
     27 H11          1.9790    -0.0000     3.2200 h4         1 9Z2      -0.016400
     28 H12         -0.5090     0.0000     3.2820 ha         1 9Z2       0.123000
     29 H13         -1.7570     0.0010     1.1300 h4         1 9Z2      -0.016400
     30 N            4.0840    -0.0030    -4.9320 ns         1 9Z2      -0.039100
@<TRIPOS>BOND
     1     1    12 ar  
     2     1    16 ar  
     3     2     8 1   
     4     2    17 1   
     5     2    18 1   
     6     2    19 1   
     7     3     4 ar  
     8     3     9 ar  
     9     3    20 1   
    10     4    11 ar  
    11     4    21 1   
    12     5     9 ar  
    13     5    10 ar  
    14     5    22 1   
    15     6     7 2   
    16     7     8 1   
    17     7    30 1   
    18     8    23 1   
    19     8    24 1   
    20     9    30 1   
    21    10    11 ar  
    22    10    26 1   
    23    11    12 1   
    24    12    13 ar  
    25    13    14 ar  
    26    14    15 ar  
    27    14    27 1   
    28    15    16 ar  
    29    15    28 1   
    30    16    29 1   
    31    25    30 1   
@<TRIPOS>SUBSTRUCTURE
     1 9Z2         1 TEMP              0 ****  ****    0 ROOT
