@<TRIPOS>MOLECULE
molecule
   45    47     1     0     0
SMALL
bcc


@<TRIPOS>ATOM
      1 C1           0.0000     0.0000     0.0000 cc         1 9Z4      -0.220300
      2 N2           1.3790     0.0000     0.0000 na         1 9Z4       0.206200
      3 N3           2.0780     0.0000     1.2140 nc         1 9Z4      -0.454800
      4 C4           1.4560    -0.0000     2.3550 cd         1 9Z4       0.425200
      5 C5           0.0420    -0.0000     2.4180 cd         1 9Z4      -0.506900
      6 C6          -0.6980     0.0000     1.2280 cc         1 9Z4       0.390600
      7 C7          -0.4210     0.0050    -1.3200 cd         1 9Z4      -0.103000
      8 C8           0.7270     0.0080    -2.1100 cd         1 9Z4      -0.199000
      9 C9           1.8040    -0.0000    -1.2820 cc         1 9Z4      -0.040100
     10 C10         -0.6420    -0.0020     3.7160 c          1 9Z4       0.516700
     11 N11          0.0710    -0.1200     4.8530 nz         1 9Z4      -0.666400
     12 O12         -1.8540     0.1050     3.7640 o          1 9Z4      -0.522100
     13 N13         -2.0760     0.0000     1.2550 nu         1 9Z4      -0.710600
     14 C14         -2.8330    -0.0010     0.0020 c3         1 9Z4       0.252100
     15 C15         -4.3090    -0.0260     0.3060 ca         1 9Z4      -0.128300
     16 C16         -5.0040     1.1590     0.4570 ca         1 9Z4      -0.128000
     17 C17         -6.3580     1.1400     0.7350 ca         1 9Z4      -0.103000
     18 C18         -7.0210    -0.0650     0.8650 ca         1 9Z4      -0.104000
     19 C19         -6.3250    -1.2570     0.7150 ca         1 9Z4       0.069600
     20 C20         -4.9670    -1.2350     0.4290 ca         1 9Z4      -0.154000
     21 N21         -6.9930    -2.4800     0.8460 ns         1 9Z4      -0.484100
     22 C22         -8.2850    -2.5850     0.4780 c          1 9Z4       0.656100
     23 C23         -9.0380    -3.8690     0.7220 c3         1 9Z4      -0.156400
     24 O24         -8.8440    -1.6460    -0.0490 o          1 9Z4      -0.580100
     25 C25        -10.4730    -3.7220     0.2150 c3         1 9Z4      -0.078100
     26 H1           2.0300    -0.0010     3.2740 h4         1 9Z4       0.017100
     27 H2          -1.4460     0.0100    -1.6700 ha         1 9Z4       0.175000
     28 H3           0.7550    -0.0240    -3.1920 ha         1 9Z4       0.184000
     29 H4           2.8400    -0.0000    -1.6000 h4         1 9Z4       0.200000
     30 H5           0.6060    -0.9650     4.8250 hn         1 9Z4       0.471467
     31 H6          -0.5520    -0.1460     5.6360 hn         1 9Z4       0.471467
     32 H7          -2.5590    -0.0130     2.1310 hn         1 9Z4       0.492800
     33 H8          -2.5690    -0.8760    -0.5790 h1         1 9Z4       0.074200
     34 H9          -2.5970     0.8930    -0.5640 h1         1 9Z4       0.074200
     35 H10         -4.4860     2.1050     0.3550 ha         1 9Z4       0.134000
     36 H11         -6.9000     2.0710     0.8520 ha         1 9Z4       0.149000
     37 H12         -8.0820    -0.0800     1.0860 ha         1 9Z4       0.176000
     38 H13         -4.4220    -2.1630     0.3120 ha         1 9Z4       0.131000
     39 H14         -6.4830    -3.3000     1.1090 hn         1 9Z4       0.324500
     40 H15         -8.5490    -4.6790     0.1940 hc         1 9Z4       0.062700
     41 H16         -9.0500    -4.0840     1.7830 hc         1 9Z4       0.062700
     42 H17        -10.4600    -3.4850    -0.8420 hc         1 9Z4       0.050033
     43 H18        -11.0080    -4.6520     0.3690 hc         1 9Z4       0.050033
     44 H19        -10.9690    -2.9260     0.7570 hc         1 9Z4       0.050033
     45 H113         0.6960     0.6570     4.9380 hn         1 9Z4       0.471467
@<TRIPOS>BOND
     1    25    23 1
     2    18    17 ar
     3    18    19 ar
     4    17    16 ar
     5    21    19 1
     6    21    22 1
     7    23    22 1
     8    19    20 ar
     9    22    24 2
    10    16    15 ar
    11    20    15 ar
    12    15    14 1
    13    12    10 2
    14    14    13 1
    15    13     6 1
    16    10     5 1
    17    10    11 1
    18     6     5 2
    19     6     1 1
    20     7     1 2
    21     7     8 1
    22     5     4 1
    23     1     2 1
    24     8     9 2
    25     4     3 2
    26     2     9 1
    27     2     3 1
    28     4    26 1
    29     7    27 1
    30     8    28 1
    31     9    29 1
    32    11    30 1
    33    11    31 1
    34    13    32 1
    35    14    33 1
    36    14    34 1
    37    16    35 1
    38    17    36 1
    39    18    37 1
    40    20    38 1
    41    21    39 1
    42    23    40 1
    43    23    41 1
    44    25    42 1
    45    25    43 1
    46    25    44 1
    47    45    11 1
@<TRIPOS>SUBSTRUCTURE
     1 9Z4         1 TEMP              0 ****  ****    0 ROOT
