@<TRIPOS>MOLECULE
9Z4
   45    47     1     0     0
SMALL
bcc


@<TRIPOS>ATOM
      1 C1           0.0000     0.0000     0.0000 cc         1 9Z4      -0.404300
      2 N2           1.3790     0.0000     0.0000 na         1 9Z4       0.712200
      3 N3           2.0780     0.0000     1.2140 nc         1 9Z4      -0.584800
      4 C4           1.4560    -0.0000     2.3550 cd         1 9Z4       0.493200
      5 C5           0.0420    -0.0000     2.4180 cd         1 9Z4      -0.543900
      6 C6          -0.6980     0.0000     1.2280 cc         1 9Z4       0.256600
      7 C7          -0.4210     0.0050    -1.3200 cd         1 9Z4      -0.097000
      8 C8           0.7270     0.0080    -2.1100 cd         1 9Z4      -0.150000
      9 C9           1.8040    -0.0000    -1.2820 cc         1 9Z4      -0.226100
     10 C10         -0.6420    -0.0020     3.7160 c          1 9Z4       0.368700
     11 N11          0.0710    -0.1200     4.8530 nz         1 9Z4       0.218600
     12 O12         -1.8540     0.1050     3.7640 o          1 9Z4      -0.558100
     13 N13         -2.0760     0.0000     1.2550 nu         1 9Z4      -0.256600
     14 C14         -2.8330    -0.0010     0.0020 c3         1 9Z4       0.174100
     15 C15         -4.3090    -0.0260     0.3060 ca         1 9Z4      -0.140300
     16 C16         -5.0040     1.1590     0.4570 ca         1 9Z4      -0.099000
     17 C17         -6.3580     1.1400     0.7350 ca         1 9Z4      -0.067000
     18 C18         -7.0210    -0.0650     0.8650 ca         1 9Z4      -0.079000
     19 C19         -6.3250    -1.2570     0.7150 ca         1 9Z4      -0.068400
     20 C20         -4.9670    -1.2350     0.4290 ca         1 9Z4      -0.127000
     21 N21         -6.9930    -2.4800     0.8460 ns         1 9Z4      -0.048100
     22 C22         -8.2850    -2.5850     0.4780 c          1 9Z4       0.561100
     23 C23         -9.0380    -3.8690     0.7220 c3         1 9Z4      -0.094400
     24 O24         -8.8440    -1.6460    -0.0490 o          1 9Z4      -0.614100
     25 C25        -10.4730    -3.7220     0.2150 c3         1 9Z4       0.020900
     26 H1           2.0300    -0.0010     3.2740 h4         1 9Z4      -0.038900
     27 H2          -1.4460     0.0100    -1.6700 ha         1 9Z4       0.152000
     28 H3           0.7550    -0.0240    -3.1920 ha         1 9Z4       0.149000
     29 H4           2.8400    -0.0000    -1.6000 h4         1 9Z4       0.166000
     30 H5           0.6060    -0.9650     4.8250 hn         1 9Z4       0.239133
     31 H6          -0.5520    -0.1460     5.6360 hn         1 9Z4       0.239133
     32 H7          -2.5590    -0.0130     2.1310 hn         1 9Z4       0.350800
     33 H8          -2.5690    -0.8760    -0.5790 h1         1 9Z4       0.052700
     34 H9          -2.5970     0.8930    -0.5640 h1         1 9Z4       0.052700
     35 H10         -4.4860     2.1050     0.3550 ha         1 9Z4       0.107000
     36 H11         -6.9000     2.0710     0.8520 ha         1 9Z4       0.117000
     37 H12         -8.0820    -0.0800     1.0860 ha         1 9Z4       0.152000
     38 H13         -4.4220    -2.1630     0.3120 ha         1 9Z4       0.107000
     39 H14         -6.4830    -3.3000     1.1090 hn         1 9Z4       0.169500
     40 H15         -8.5490    -4.6790     0.1940 hc         1 9Z4       0.027700
     41 H16         -9.0500    -4.0840     1.7830 hc         1 9Z4       0.027700
     42 H17        -10.4600    -3.4850    -0.8420 hc         1 9Z4       0.013700
     43 H18        -11.0080    -4.6520     0.3690 hc         1 9Z4       0.013700
     44 H19        -10.9690    -2.9260     0.7570 hc         1 9Z4       0.013700
     45 H113         0.6960     0.6570     4.9380 hn         1 9Z4       0.239133
@<TRIPOS>BOND
     1     1     2 1   
     2     1     6 1   
     3     1     7 2   
     4     2     3 1   
     5     2     9 1   
     6     3     4 2   
     7     4     5 1   
     8     4    26 1   
     9     5     6 2   
    10     5    10 1   
    11     6    13 1   
    12     7     8 1   
    13     7    27 1   
    14     8     9 2   
    15     8    28 1   
    16     9    29 1   
    17    10    11 1   
    18    10    12 2   
    19    11    30 1   
    20    11    31 1   
    21    11    45 1   
    22    13    14 1   
    23    13    32 1   
    24    14    15 1   
    25    14    33 1   
    26    14    34 1   
    27    15    16 ar  
    28    15    20 ar  
    29    16    17 ar  
    30    16    35 1   
    31    17    18 ar  
    32    17    36 1   
    33    18    19 ar  
    34    18    37 1   
    35    19    20 ar  
    36    19    21 1   
    37    20    38 1   
    38    21    22 1   
    39    21    39 1   
    40    22    23 1   
    41    22    24 2   
    42    23    25 1   
    43    23    40 1   
    44    23    41 1   
    45    25    42 1   
    46    25    43 1   
    47    25    44 1   
@<TRIPOS>SUBSTRUCTURE
     1 9Z4         1 TEMP              0 ****  ****    0 ROOT
