@<TRIPOS>MOLECULE
molecule
   58    62     1     0     0
SMALL
bcc


@<TRIPOS>ATOM
      1 C1           0.0000     0.0000     0.0000 ca         1 9Z7       0.079600
      2 C2           1.3950     0.0000     0.0000 ca         1 9Z7      -0.108000
      3 C10         -3.0590     0.2520     3.2040 c3         1 9Z7      -0.090100
      4 C11         -2.3910     2.2390     1.8810 c2         1 9Z7      -0.178200
      5 C12         -1.6370     2.5600     2.9040 c2         1 9Z7      -0.218000
      6 C13         -2.1710     0.4920    -0.5710 c3         1 9Z7       0.508000
      7 C16         -0.1850     0.2190    -3.4020 c3         1 9Z7       0.120700
      8 C18         -3.8040    -1.2630    -1.2170 c          1 9Z7       0.755700
      9 C20         -3.3610    -2.0350    -0.0320 ce         1 9Z7       0.049900
     10 C22         -3.2480    -4.0340     1.2520 c3         1 9Z7       0.125700
     11 C23         -2.6340    -1.4590     0.9130 c2         1 9Z7      -0.240200
     12 C24         -3.7340     1.0370    -2.1420 cf         1 9Z7      -0.063600
     13 C25         -4.5800     0.9450    -3.1970 ce         1 9Z7      -0.144800
     14 C26         -4.8050     2.1100    -4.0610 cc         1 9Z7       0.339100
     15 C27         -5.6150     2.1570    -5.1600 cd         1 9Z7      -0.246600
     16 C29         -4.6750     4.1190    -4.8650 cd         1 9Z7       0.382400
     17 C3           2.0280     0.0000     1.2340 ca         1 9Z7      -0.113000
     18 C31         -3.1000     2.2640    -1.6400 c          1 9Z7       0.691700
     19 C4           1.3200    -0.0000     2.4180 ca         1 9Z7      -0.143000
     20 C5          -0.0710    -0.0040     2.4320 ca         1 9Z7      -0.095000
     21 C6          -0.7070    -0.0050     1.2100 ca         1 9Z7      -0.120300
     22 C7          -2.1840    -0.0190     0.8800 c3         1 9Z7       0.043500
     23 C8          -3.0150     0.8710     1.8050 c3         1 9Z7      -0.002800
     24 C9          -4.4390     0.9890     1.2560 c3         1 9Z7      -0.090100
     25 N14         -0.8730     0.0100    -1.0840 nh         1 9Z7      -0.372500
     26 N17         -3.3040    -0.0180    -1.3320 n          1 9Z7      -0.369000
     27 N28         -5.5280     3.4210    -5.6590 na         1 9Z7      -0.300900
     28 N30         -4.2500     3.3400    -3.9100 nc         1 9Z7      -0.622000
     29 N33         -2.2290     1.9490    -0.6560 ns         1 9Z7      -0.600900
     30 O15         -0.3740     0.8810    -2.1500 os         1 9Z7      -0.233100
     31 O19         -4.5760    -1.7250    -2.0350 o          1 9Z7      -0.588500
     32 O21         -3.7060    -3.3450     0.0870 os         1 9Z7      -0.299900
     33 O32         -3.3240     3.3890    -2.0470 o          1 9Z7      -0.535500
     34 H1           1.9600     0.0000    -0.9240 ha         1 9Z7       0.149000
     35 H2          -3.2240     1.0310     3.9390 hc         1 9Z7       0.043533
     36 H3          -2.1180    -0.2450     3.4090 hc         1 9Z7       0.043533
     37 H4          -3.8660    -0.4690     3.2550 hc         1 9Z7       0.043533
     38 H5          -2.5610     2.9570     1.0880 ha         1 9Z7       0.143000
     39 H6          -1.1880     3.5440     2.9580 ha         1 9Z7       0.115500
     40 H7          -1.4620     1.8400     3.6950 ha         1 9Z7       0.115500
     41 H8          -0.5660    -0.7930    -3.3360 h1         1 9Z7       0.043367
     42 H9           0.8710     0.1920    -3.6410 h1         1 9Z7       0.043367
     43 H10         -0.7180     0.7550    -4.1780 h1         1 9Z7       0.043367
     44 H12         -3.5800    -5.0640     1.2180 h1         1 9Z7       0.044700
     45 H13         -2.1650    -4.0050     1.2860 h1         1 9Z7       0.044700
     46 H14         -3.6490    -3.5540     2.1370 h1         1 9Z7       0.044700
     47 H15         -2.3420    -2.0620     1.7650 ha         1 9Z7       0.145000
     48 H17         -4.9890    -0.0180    -3.4760 ha         1 9Z7       0.169000
     49 H18         -6.2120     1.3450    -5.5580 h4         1 9Z7       0.177000
     50 H19         -4.3990     5.1570    -4.9990 h5         1 9Z7       0.065100
     51 H20          3.1110     0.0020     1.2690 ha         1 9Z7       0.132000
     52 H21          1.8590    -0.0000     3.3580 ha         1 9Z7       0.131000
     53 H22         -0.6290    -0.0040     3.3610 ha         1 9Z7       0.148000
     54 H23         -5.0980     1.3510     2.0360 hc         1 9Z7       0.043533
     55 H24         -4.4480     1.6840     0.4240 hc         1 9Z7       0.043533
     56 H25         -4.7780     0.0180     0.9180 hc         1 9Z7       0.043533
     57 H26         -6.0050     3.7720    -6.4670 hn         1 9Z7       0.295700
     58 H28         -1.6630     2.5930    -0.1400 hn         1 9Z7       0.371500
@<TRIPOS>BOND
     1    10    32 1
     2    24    23 1
     3    31     8 2
     4    32     9 1
     5    28    16 2
     6    28    14 1
     7    16    27 1
     8     9     8 1
     9     9    11 2
    10    13    14 1
    11    13    12 2
    12     8    26 1
    13    14    15 2
    14     3    23 1
    15    27    15 1
    16    11    22 1
    17    23     4 1
    18    23    22 1
    19    26    12 1
    20    26     6 1
    21    12    18 1
    22     4     5 2
    23    22     6 1
    24    22    21 1
    25     6    29 1
    26     6    25 1
    27    18    33 2
    28    18    29 1
    29    21    20 ar
    30    21     1 ar
    31    25    30 1
    32    25     1 1
    33    20    19 ar
    34     7    30 1
    35     1     2 ar
    36    19    17 ar
    37     2    17 ar
    38     2    34 1
    39     3    35 1
    40     3    36 1
    41     3    37 1
    42     4    38 1
    43     5    39 1
    44     5    40 1
    45     7    41 1
    46     7    42 1
    47     7    43 1
    48    10    44 1
    49    10    45 1
    50    10    46 1
    51    11    47 1
    52    13    48 1
    53    15    49 1
    54    16    50 1
    55    17    51 1
    56    19    52 1
    57    20    53 1
    58    24    54 1
    59    24    55 1
    60    24    56 1
    61    27    57 1
    62    29    58 1
@<TRIPOS>SUBSTRUCTURE
     1 9Z7         1 TEMP              0 ****  ****    0 ROOT
