@<TRIPOS>MOLECULE
9Z7
   58    62     1     0     0
SMALL
bcc


@<TRIPOS>ATOM
      1 C1           0.0000     0.0000     0.0000 ca         1 9Z7       0.009600
      2 C2           1.3950     0.0000     0.0000 ca         1 9Z7      -0.084000
      3 C10         -3.0590     0.2520     3.2040 c3         1 9Z7      -0.027100
      4 C11         -2.3910     2.2390     1.8810 c2         1 9Z7      -0.184200
      5 C12         -1.6370     2.5600     2.9040 c2         1 9Z7      -0.164000
      6 C13         -2.1710     0.4920    -0.5710 c3         1 9Z7       0.222000
      7 C16         -0.1850     0.2190    -3.4020 c3         1 9Z7       0.250700
      8 C18         -3.8040    -1.2630    -1.2170 c          1 9Z7       0.664700
      9 C20         -3.3610    -2.0350    -0.0320 ce         1 9Z7       0.056900
     10 C22         -3.2480    -4.0340     1.2520 c3         1 9Z7       0.235700
     11 C23         -2.6340    -1.4590     0.9130 c2         1 9Z7      -0.259200
     12 C24         -3.7340     1.0370    -2.1420 ce         1 9Z7      -0.227600
     13 C25         -4.5800     0.9450    -3.1970 cf         1 9Z7      -0.095800
     14 C26         -4.8050     2.1100    -4.0610 cd         1 9Z7       0.316100
     15 C27         -5.6150     2.1570    -5.1600 cc         1 9Z7      -0.418600
     16 C29         -4.6750     4.1190    -4.8650 cc         1 9Z7       0.191400
     17 C3           2.0280     0.0000     1.2340 ca         1 9Z7      -0.083000
     18 C31         -3.1000     2.2640    -1.6400 c          1 9Z7       0.621700
     19 C4           1.3200    -0.0000     2.4180 ca         1 9Z7      -0.118000
     20 C5          -0.0710    -0.0040     2.4320 ca         1 9Z7      -0.076000
     21 C6          -0.7070    -0.0050     1.2100 ca         1 9Z7      -0.132300
     22 C7          -2.1840    -0.0190     0.8800 c3         1 9Z7       0.066500
     23 C8          -3.0150     0.8710     1.8050 c3         1 9Z7       0.008200
     24 C9          -4.4390     0.9890     1.2560 c3         1 9Z7      -0.027100
     25 N14         -0.8730     0.0100    -1.0840 nh         1 9Z7      -0.180500
     26 N17         -3.3040    -0.0180    -1.3320 n          1 9Z7       0.030000
     27 N28         -5.5280     3.4210    -5.6590 na         1 9Z7       0.244100
     28 N30         -4.2500     3.3400    -3.9100 nd         1 9Z7      -0.531000
     29 N33         -2.2290     1.9490    -0.6560 ns         1 9Z7      -0.253900
     30 O15         -0.3740     0.8810    -2.1500 os         1 9Z7      -0.269100
     31 O19         -4.5760    -1.7250    -2.0350 o          1 9Z7      -0.637500
     32 O21         -3.7060    -3.3450     0.0870 os         1 9Z7      -0.272900
     33 O32         -3.3240     3.3890    -2.0470 o          1 9Z7      -0.572500
     34 H1           1.9600     0.0000    -0.9240 ha         1 9Z7       0.119000
     35 H2          -2.1180    -0.2440     3.4090 hc         1 9Z7       0.019033
     36 H3          -3.2240     1.0310     3.9390 hc         1 9Z7       0.019033
     37 H4          -3.8660    -0.4690     3.2550 hc         1 9Z7       0.019033
     38 H5          -2.5610     2.9570     1.0880 ha         1 9Z7       0.131000
     39 H6          -1.4620     1.8400     3.6950 ha         1 9Z7       0.092500
     40 H7          -1.1880     3.5440     2.9580 ha         1 9Z7       0.092500
     41 H8          -0.7110     0.7600    -4.1790 h1         1 9Z7       0.000033
     42 H9           0.8720     0.1850    -3.6360 h1         1 9Z7       0.000033
     43 H10         -0.5740    -0.7900    -3.3380 h1         1 9Z7       0.000033
     44 H12         -3.6490    -3.5540     2.1370 h1         1 9Z7       0.000367
     45 H13         -3.5800    -5.0640     1.2180 h1         1 9Z7       0.000367
     46 H14         -2.1650    -4.0050     1.2860 h1         1 9Z7       0.000367
     47 H15         -2.3410    -2.0620     1.7640 ha         1 9Z7       0.136000
     48 H17         -5.1140     0.0210    -3.3840 ha         1 9Z7       0.139000
     49 H18         -6.2120     1.3450    -5.5580 h4         1 9Z7       0.154000
     50 H19         -4.3990     5.1570    -4.9990 h5         1 9Z7       0.023100
     51 H20          3.1110     0.0020     1.2690 ha         1 9Z7       0.102000
     52 H21          1.8590    -0.0000     3.3580 ha         1 9Z7       0.103000
     53 H22         -0.6290    -0.0040     3.3610 ha         1 9Z7       0.131000
     54 H23         -4.7680     0.0230     0.8950 hc         1 9Z7       0.019033
     55 H24         -4.4530     1.7030     0.4410 hc         1 9Z7       0.019033
     56 H25         -5.1020     1.3270     2.0430 hc         1 9Z7       0.019033
     57 H26         -6.0050     3.7720    -6.4670 hn         1 9Z7       0.118700
     58 H28         -1.6630     2.5930    -0.1400 hn         1 9Z7       0.240500
@<TRIPOS>BOND
     1     1     2 ar  
     2     1    21 ar  
     3     1    25 1   
     4     2    17 ar  
     5     2    34 1   
     6     3    23 1   
     7     3    35 1   
     8     3    36 1   
     9     3    37 1   
    10     4     5 2   
    11     4    23 1   
    12     4    38 1   
    13     5    39 1   
    14     5    40 1   
    15     6    22 1   
    16     6    25 1   
    17     6    26 1   
    18     6    29 1   
    19     7    30 1   
    20     7    41 1   
    21     7    42 1   
    22     7    43 1   
    23     8     9 1   
    24     8    26 1   
    25     8    31 2   
    26     9    11 2   
    27     9    32 1   
    28    10    32 1   
    29    10    44 1   
    30    10    45 1   
    31    10    46 1   
    32    11    22 1   
    33    11    47 1   
    34    12    13 2   
    35    12    18 1   
    36    12    26 1   
    37    13    14 1   
    38    13    48 1   
    39    14    15 2   
    40    14    28 1   
    41    15    27 1   
    42    15    49 1   
    43    16    27 1   
    44    16    28 2   
    45    16    50 1   
    46    17    19 ar  
    47    17    51 1   
    48    18    29 1   
    49    18    33 2   
    50    19    20 ar  
    51    19    52 1   
    52    20    21 ar  
    53    20    53 1   
    54    21    22 1   
    55    22    23 1   
    56    23    24 1   
    57    24    54 1   
    58    24    55 1   
    59    24    56 1   
    60    25    30 1   
    61    27    57 1   
    62    29    58 1   
@<TRIPOS>SUBSTRUCTURE
     1 9Z7         1 TEMP              0 ****  ****    0 ROOT
