@<TRIPOS>MOLECULE
molecule
   39    39     1     0     0
SMALL
bcc


@<TRIPOS>ATOM
      1 O01          0.0000     0.0000     0.0000 o          1 9Z8      -0.576100
      2 C02          1.2130     0.0000     0.0000 c          1 9Z8       0.673100
      3 C03          1.9660     0.0000     1.3040 c3         1 9Z8      -0.058300
      4 S04          0.7880     0.0000     2.6830 sh         1 9Z8      -0.332900
      5 N05          1.8860    -0.0060    -1.1680 ns         1 9Z8      -0.587900
      6 C06          1.1530    -0.0110    -2.4360 c3         1 9Z8       0.114000
      7 C07          2.1470    -0.0180    -3.5990 c3         1 9Z8      -0.099400
      8 C08          1.3820    -0.0240    -4.9240 c3         1 9Z8      -0.081400
      9 C09          2.3760    -0.0300    -6.0880 c3         1 9Z8      -0.066400
     10 C10          1.6100    -0.0360    -7.4120 c3         1 9Z8      -0.157400
     11 C11          2.5890    -0.0420    -8.5580 c          1 9Z8       0.658100
     12 O12          3.7820    -0.0400    -8.3360 o          1 9Z8      -0.596100
     13 N13          2.1400    -0.0480    -9.8280 ns         1 9Z8      -0.479100
     14 C14          3.0450     0.0450   -10.8920 ca         1 9Z8       0.051600
     15 C15          4.2940    -0.5550   -10.7960 ca         1 9Z8      -0.143000
     16 C16          5.1860    -0.4610   -11.8470 ca         1 9Z8      -0.113500
     17 C17          4.8360     0.2290   -12.9930 ca         1 9Z8      -0.143000
     18 C18          3.5920     0.8270   -13.0910 ca         1 9Z8      -0.113500
     19 C19          2.6950     0.7330   -12.0460 ca         1 9Z8      -0.143000
     20 H031         2.5890    -0.8850     1.3620 h1         1 9Z8       0.070700
     21 H032         2.5890     0.8840     1.3610 h1         1 9Z8       0.070700
     22 H05          2.8870    -0.0060    -1.1690 hn         1 9Z8       0.312500
     23 H061         0.5290    -0.8950    -2.4890 h1         1 9Z8       0.055700
     24 H062         0.5310     0.8740    -2.4980 h1         1 9Z8       0.055700
     25 H071         2.7690    -0.9020    -3.5370 hc         1 9Z8       0.048200
     26 H072         2.7700     0.8670    -3.5460 hc         1 9Z8       0.048200
     27 H081         0.7590     0.8600    -4.9860 hc         1 9Z8       0.044700
     28 H082         0.7590    -0.9090    -4.9770 hc         1 9Z8       0.044700
     29 H091         2.9990     0.8550    -6.0350 hc         1 9Z8       0.059700
     30 H092         2.9990    -0.9140    -6.0260 hc         1 9Z8       0.059700
     31 H101         0.9870    -0.9200    -7.4650 hc         1 9Z8       0.062200
     32 H102         0.9880     0.8490    -7.4730 hc         1 9Z8       0.062200
     33 H13          1.1610    -0.1480   -10.0120 hn         1 9Z8       0.323500
     34 H15          4.5690    -1.0960    -9.8990 ha         1 9Z8       0.146000
     35 H19          1.7210     1.2010   -12.1240 ha         1 9Z8       0.146000
     36 H16          6.1600    -0.9290   -11.7730 ha         1 9Z8       0.131500
     37 H17          5.5380     0.3020   -13.8150 ha         1 9Z8       0.129000
     38 H18          3.3200     1.3650   -13.9910 ha         1 9Z8       0.131500
     39 H32          1.4520     0.0000     3.8330 hs         1 9Z8       0.192800
@<TRIPOS>BOND
     1     1     2 2
     2     2     3 1
     3     2     5 1
     4     3     4 1
     5     5     6 1
     6     6     7 1
     7     7     8 1
     8     8     9 1
     9     9    10 1
    10    10    11 1
    11    11    12 2
    12    11    13 1
    13    13    14 1
    14    14    15 ar
    15    14    19 ar
    16    15    16 ar
    17    16    17 ar
    18    17    18 ar
    19    18    19 ar
    20     3    20 1
    21     3    21 1
    22     5    22 1
    23     6    23 1
    24     6    24 1
    25     7    25 1
    26     7    26 1
    27     8    27 1
    28     8    28 1
    29     9    29 1
    30     9    30 1
    31    10    31 1
    32    10    32 1
    33    13    33 1
    34    15    34 1
    35    19    35 1
    36    16    36 1
    37    17    37 1
    38    18    38 1
    39     4    39 1
@<TRIPOS>SUBSTRUCTURE
     1 9Z8         1 TEMP              0 ****  ****    0 ROOT
