@<TRIPOS>MOLECULE
molecule
   49    51     1     0     0
SMALL
bcc


@<TRIPOS>ATOM
      1 O3P          0.0000     0.0000     0.0000 o          1 9ZA      -0.799000
      2 P            1.6100     0.0000     0.0000 p5         1 9ZA       1.272700
      3 O2P          2.1030     0.0000     1.3950 o          1 9ZA      -0.799000
      4 O5'          2.1460     1.3150    -0.7580 os         1 9ZA      -0.563200
      5 C5'          3.5190     1.7150    -0.7480 c3         1 9ZA       0.214400
      6 C4'          3.6820     3.0000    -1.5610 c3         1 9ZA       0.130100
      7 C3'          5.1720     3.4030    -1.6370 c3         1 9ZA       0.087100
      8 O3'          5.7430     2.9770    -2.8750 oh         1 9ZA      -0.574800
      9 C2'          5.1470     4.9460    -1.5540 c3         1 9ZA       0.081100
     10 O2'          5.7070     5.5200    -2.7370 oh         1 9ZA      -0.566800
     11 C1'          3.6460     5.2930    -1.4390 c3         1 9ZA       0.247800
     12 O4'          3.0320     4.1040    -0.8930 os         1 9ZA      -0.380600
     13 N9           3.4530     6.4280    -0.5340 na         1 9ZA      -0.251000
     14 C4           3.5360     7.7560    -0.8680 ca         1 9ZA       0.441800
     15 C5           3.2770     8.4700     0.3140 ca         1 9ZA      -0.155200
     16 N7           3.0550     7.5580     1.2910 nc         1 9ZA      -0.596100
     17 C8           3.1520     6.3590     0.7940 cd         1 9ZA       0.463700
     18 N3           3.7890     8.4290    -1.9860 nb         1 9ZA      -0.742000
     19 C2           3.7990     9.7440    -1.9910 ca         1 9ZA       0.689900
     20 N1           3.5620    10.4580    -0.9040 nb         1 9ZA      -0.785000
     21 C6           3.3030     9.8740     0.2600 ca         1 9ZA       0.763200
     22 N6           3.0560    10.6310     1.3930 nv         1 9ZA      -1.069500
     23 N2           2.1710    -1.3730    -0.7950 n7         1 9ZA      -0.928300
     24 C3           1.7000    -1.4060    -2.1860 c3         1 9ZA       0.177500
     25 C7           1.4330    -2.8330    -2.5920 c          1 9ZA       0.630100
     26 C9           2.7700    -0.8080    -3.1010 c3         1 9ZA      -0.103100
     27 O10          1.6150    -3.7290    -1.8030 o          1 9ZA      -0.555000
     28 O11          0.9900    -3.1060    -3.8290 os         1 9ZA      -0.436900
     29 C12          0.7540    -4.5030    -4.1500 c3         1 9ZA       0.138700
     30 H2           3.8370     1.8910     0.2720 h1         1 9ZA       0.034700
     31 H3           4.1270     0.9320    -1.1860 h1         1 9ZA       0.034700
     32 H4           3.2770     2.8750    -2.5580 h1         1 9ZA       0.083700
     33 H5           5.7180     2.9890    -0.7980 h1         1 9ZA       0.050700
     34 H6           6.5720     2.5580    -2.7110 ho         1 9ZA       0.397000
     35 H7           5.6800     5.2840    -0.6730 h1         1 9ZA       0.049700
     36 H8           6.5720     5.8450    -2.5500 ho         1 9ZA       0.399000
     37 H9           3.2360     5.5100    -2.4180 h2         1 9ZA       0.106700
     38 H10          3.0130     5.4420     1.3530 h5         1 9ZA       0.105800
     39 H11          4.0060    10.2610    -2.9200 h5         1 9ZA       0.056100
     40 H12          3.8180    11.0450     1.8940 hn         1 9ZA       0.439800
     41 H13          2.1150    10.7870     1.6950 hn         1 9ZA       0.439800
     42 H14          2.2980    -2.2280    -0.2890 hn         1 9ZA       0.437800
     43 H15          0.7870    -0.8290    -2.2720 h1         1 9ZA       0.095700
     44 H16          2.8500    -1.4040    -4.0020 hc         1 9ZA       0.039033
     45 H17          3.7230    -0.8020    -2.5860 hc         1 9ZA       0.039033
     46 H18          2.4950     0.2070    -3.3630 hc         1 9ZA       0.039033
     47 H19          1.6760    -5.0600    -4.0380 h1         1 9ZA       0.039700
     48 H20          0.4050    -4.5840    -5.1730 h1         1 9ZA       0.039700
     49 H21          0.0040    -4.9060    -3.4800 h1         1 9ZA       0.039700
@<TRIPOS>BOND
     1    22    21 1
     2    21    20 ar
     3    21    15 ar
     4    20    19 ar
     5    15    16 1
     6    15    14 ar
     7    19    18 ar
     8    16    17 2
     9    14    18 ar
    10    14    13 1
    11    17    13 1
    12    13    11 1
    13    11     9 1
    14    11    12 1
    15    10     9 1
    16     9     7 1
    17    12     6 1
    18     7     6 1
    19     7     8 1
    20     6     5 1
    21     5     4 1
    22     4     2 1
    23    27    25 2
    24     3     2 1
    25    23     2 1
    26    23    24 1
    27     2     1 1
    28    25    24 1
    29    25    28 1
    30    26    24 1
    31    29    28 1
    32     5    30 1
    33     5    31 1
    34     6    32 1
    35     7    33 1
    36     8    34 1
    37     9    35 1
    38    10    36 1
    39    11    37 1
    40    17    38 1
    41    19    39 1
    42    22    40 1
    43    22    41 1
    44    23    42 1
    45    24    43 1
    46    26    44 1
    47    26    45 1
    48    26    46 1
    49    29    47 1
    50    29    48 1
    51    29    49 1
@<TRIPOS>SUBSTRUCTURE
     1 9ZA         1 TEMP              0 ****  ****    0 ROOT
