@<TRIPOS>MOLECULE
molecule
   34    35     1     0     0
SMALL
bcc


@<TRIPOS>ATOM
      1 C1           0.0000     0.0000     0.0000 c3         1 9ZB      -0.158400
      2 C2           1.5300     0.0000     0.0000 c3         1 9ZB      -0.078100
      3 C3          -2.8060     0.1370     0.5750 c3         1 9ZB       0.097000
      4 C4          -4.0070    -0.7000     1.0350 c3         1 9ZB       0.149800
      5 O            0.2810    -0.1140     2.3410 o          1 9ZB      -0.596100
      6 C           -0.5020     0.0000     1.4210 c          1 9ZB       0.666100
      7 N           -1.8210     0.1270     1.6690 n          1 9ZB      -0.379000
      8 C7          -2.3040     0.2540     2.9830 ca         1 9ZB       0.025600
      9 C12         -1.4140     0.4910     4.0190 ca         1 9ZB      -0.132000
     10 C11         -1.8780     0.6120     5.3160 ca         1 9ZB      -0.139000
     11 C10         -3.2300     0.4980     5.5800 ca         1 9ZB      -0.126000
     12 C9          -4.1230     0.2650     4.5520 ca         1 9ZB      -0.158000
     13 C8          -3.6680     0.1430     3.2430 ca         1 9ZB       0.076600
     14 N1          -4.5980    -0.0780     2.2240 nh         1 9ZB      -0.598000
     15 C5          -5.7410    -0.8580     2.7150 c3         1 9ZB       0.163800
     16 C6          -6.7780    -1.0010     1.5990 c3         1 9ZB      -0.100100
     17 H1          -0.3610    -0.8850    -0.5110 hc         1 9ZB       0.059700
     18 H2          -0.3610     0.8850    -0.5110 hc         1 9ZB       0.059700
     19 H3           1.8910    -0.8830     0.5130 hc         1 9ZB       0.045367
     20 H4           1.8910     0.8860     0.5090 hc         1 9ZB       0.045367
     21 H5           1.8910    -0.0020    -1.0210 hc         1 9ZB       0.045367
     22 H6          -3.1210     1.1530     0.3740 h1         1 9ZB       0.061700
     23 H7          -2.3710    -0.3030    -0.3140 h1         1 9ZB       0.061700
     24 H8          -3.6780    -1.7020     1.2780 h1         1 9ZB       0.051700
     25 H9          -4.7450    -0.7370     0.2430 h1         1 9ZB       0.051700
     26 H10         -0.3550     0.5810     3.8120 ha         1 9ZB       0.192000
     27 H11         -1.1810     0.7950     6.1250 ha         1 9ZB       0.133000
     28 H12         -3.5910     0.5930     6.5970 ha         1 9ZB       0.127000
     29 H13         -5.1810     0.1760     4.7660 ha         1 9ZB       0.135000
     30 H14         -5.4020    -1.8410     3.0210 h1         1 9ZB       0.046200
     31 H15         -6.1880    -0.3510     3.5610 h1         1 9ZB       0.046200
     32 H16         -7.7540    -1.1830     2.0340 hc         1 9ZB       0.041367
     33 H17         -6.8080    -0.0890     1.0150 hc         1 9ZB       0.041367
     34 H18         -6.5080    -1.8320     0.9580 hc         1 9ZB       0.041367
@<TRIPOS>BOND
     1    11    10 ar
     2    11    12 ar
     3    10     9 ar
     4     2     1 1
     5     1     6 1
     6    12    13 ar
     7     9     8 ar
     8    13     8 ar
     9    13    14 1
    10     8     7 1
    11    15    14 1
    12    15    16 1
    13     6     7 1
    14     6     5 2
    15    14     4 1
    16     7     3 1
    17     4     3 1
    18     1    17 1
    19     1    18 1
    20     2    19 1
    21     2    20 1
    22     2    21 1
    23     3    22 1
    24     3    23 1
    25     4    24 1
    26     4    25 1
    27     9    26 1
    28    10    27 1
    29    11    28 1
    30    12    29 1
    31    15    30 1
    32    15    31 1
    33    16    32 1
    34    16    33 1
    35    16    34 1
@<TRIPOS>SUBSTRUCTURE
     1 9ZB         1 TEMP              0 ****  ****    0 ROOT
