@<TRIPOS>MOLECULE
molecule
   49    51     1     0     0
SMALL
bcc


@<TRIPOS>ATOM
      1 O3P          0.0000     0.0000     0.0000 o          1 9ZD      -0.789000
      2 P            1.6100     0.0000     0.0000 p5         1 9ZD       1.256700
      3 O2P          2.1040     0.0000     1.3950 o          1 9ZD      -0.789000
      4 O5'          2.1460     1.3140    -0.7600 os         1 9ZD      -0.571200
      5 C5'          3.5190     1.7130    -0.7500 c3         1 9ZD       0.211400
      6 C4'          3.6820     2.9980    -1.5640 c3         1 9ZD       0.129100
      7 C3'          5.1720     3.4010    -1.6390 c3         1 9ZD       0.086100
      8 O3'          5.7430     2.9740    -2.8780 oh         1 9ZD      -0.575800
      9 C2'          5.1480     4.9440    -1.5590 c3         1 9ZD       0.083100
     10 O2'          5.7070     5.5160    -2.7430 oh         1 9ZD      -0.565800
     11 C1'          3.6470     5.2900    -1.4440 c3         1 9ZD       0.247800
     12 O4'          3.0330     4.1020    -0.8970 os         1 9ZD      -0.380600
     13 N9           3.4540     6.4270    -0.5390 na         1 9ZD      -0.252000
     14 C4           3.5370     7.7550    -0.8740 ca         1 9ZD       0.440800
     15 C5           3.2790     8.4700     0.3070 ca         1 9ZD      -0.152200
     16 N7           3.0550     7.5580     1.2840 nc         1 9ZD      -0.596100
     17 C8           3.1530     6.3580     0.7890 cd         1 9ZD       0.464700
     18 N3           3.7910     8.4260    -1.9940 nb         1 9ZD      -0.740000
     19 C2           3.8010     9.7420    -1.9990 ca         1 9ZD       0.687900
     20 N1           3.5640    10.4560    -0.9140 nb         1 9ZD      -0.783000
     21 C6           3.3050     9.8740     0.2520 ca         1 9ZD       0.763200
     22 N6           3.0580    10.6310     1.3830 nv         1 9ZD      -1.072500
     23 N2           2.1710    -1.3750    -0.7930 n7         1 9ZD      -0.906300
     24 C3           1.6990    -1.4080    -2.1850 c3         1 9ZD       0.184500
     25 C7           2.7610    -2.0200    -3.0600 c          1 9ZD       0.620100
     26 C9           0.4220    -2.2480    -2.2700 c3         1 9ZD      -0.092100
     27 O10          3.8050    -2.3910    -2.5760 o          1 9ZD      -0.570000
     28 O11          2.5500    -2.1550    -4.3780 os         1 9ZD      -0.431900
     29 C12          3.6170    -2.7520    -5.1610 c3         1 9ZD       0.137700
     30 H2           3.8370     1.8890     0.2700 h1         1 9ZD       0.032700
     31 H3           4.1250     0.9290    -1.1880 h1         1 9ZD       0.032700
     32 H4           3.2780     2.8730    -2.5620 h1         1 9ZD       0.083700
     33 H5           5.7170     2.9880    -0.8000 h1         1 9ZD       0.051700
     34 H6           6.5380     2.4960    -2.7090 ho         1 9ZD       0.398000
     35 H7           5.6810     5.2830    -0.6790 h1         1 9ZD       0.049700
     36 H8           6.5720     5.8430    -2.5550 ho         1 9ZD       0.400000
     37 H9           3.2370     5.5070    -2.4230 h2         1 9ZD       0.106700
     38 H10          3.0160     5.4410     1.3490 h5         1 9ZD       0.106800
     39 H11          4.0070    10.2590    -2.9280 h5         1 9ZD       0.056100
     40 H12          2.1250    10.9260     1.5940 hn         1 9ZD       0.439300
     41 H13          3.8170    10.9100     1.9730 hn         1 9ZD       0.439300
     42 H14          3.0640    -1.7590    -0.5580 hn         1 9ZD       0.417800
     43 H15          1.4920    -0.3990    -2.5200 h1         1 9ZD       0.069700
     44 H16         -0.0490    -2.0920    -3.2330 hc         1 9ZD       0.049700
     45 H17          0.6710    -3.2960    -2.1540 hc         1 9ZD       0.049700
     46 H18         -0.2590    -1.9500    -1.4820 hc         1 9ZD       0.049700
     47 H19          3.3040    -2.8360    -6.1940 h1         1 9ZD       0.039700
     48 H20          3.8420    -3.7380    -4.7710 h1         1 9ZD       0.039700
     49 H21          4.5010    -2.1290    -5.1000 h1         1 9ZD       0.039700
@<TRIPOS>BOND
     1    22    21 1
     2    21    20 ar
     3    21    15 ar
     4    20    19 ar
     5    15    16 1
     6    15    14 ar
     7    19    18 ar
     8    16    17 2
     9    14    18 ar
    10    14    13 1
    11    17    13 1
    12    13    11 1
    13    11     9 1
    14    11    12 1
    15    10     9 1
    16     9     7 1
    17    12     6 1
    18     7     6 1
    19     7     8 1
    20     6     5 1
    21     5     4 1
    22    28    25 1
    23    28    29 1
    24    27    25 2
    25     4     2 1
    26    25    24 1
    27     3     2 1
    28    23     2 1
    29    23    24 1
    30     2     1 1
    31    24    26 1
    32     5    30 1
    33     5    31 1
    34     6    32 1
    35     7    33 1
    36     8    34 1
    37     9    35 1
    38    10    36 1
    39    11    37 1
    40    17    38 1
    41    19    39 1
    42    22    40 1
    43    22    41 1
    44    23    42 1
    45    24    43 1
    46    26    44 1
    47    26    45 1
    48    26    46 1
    49    29    47 1
    50    29    48 1
    51    29    49 1
@<TRIPOS>SUBSTRUCTURE
     1 9ZD         1 TEMP              0 ****  ****    0 ROOT
