@<TRIPOS>MOLECULE
molecule
   23    24     1     0     0
SMALL
bcc


@<TRIPOS>ATOM
      1 C1           0.0000     0.0000     0.0000 ca         1 9ZE      -0.067000
      2 C2           1.3760     0.0000     0.0000 ca         1 9ZE      -0.141000
      3 C3          -0.6980     0.0010     1.2140 ca         1 9ZE      -0.185600
      4 C4           2.0790     0.0000     1.2000 ca         1 9ZE       0.092100
      5 C5           0.0100    -0.0030     2.4210 ca         1 9ZE      -0.086000
      6 C6           1.3910     0.0030     2.4120 ca         1 9ZE       0.046100
      7 O7           3.4380    -0.0020     1.1740 os         1 9ZE      -0.319900
      8 C8           4.1070     0.3830     2.3790 c3         1 9ZE       0.097400
      9 O9           2.0650     0.0110     3.5950 os         1 9ZE      -0.323900
     10 C10          3.4470    -0.3560     3.5520 c3         1 9ZE       0.098400
     11 C11         -2.1670     0.0070     1.2190 c          1 9ZE       0.580700
     12 C12         -2.9160    -0.1170     2.5210 c3         1 9ZE      -0.192100
     13 O13         -2.7760     0.1120     0.1760 o          1 9ZE      -0.530100
     14 H1          -0.5420     0.0030    -0.9380 ha         1 9ZE       0.159000
     15 H2           1.9150    -0.0010    -0.9400 ha         1 9ZE       0.151000
     16 H3          -0.5260    -0.0030     3.3630 ha         1 9ZE       0.149000
     17 H4           5.1470     0.0870     2.3160 h1         1 9ZE       0.072200
     18 H5           3.9890     1.4500     2.5230 h1         1 9ZE       0.072200
     19 H6           3.9230    -0.0470     4.4750 h1         1 9ZE       0.070700
     20 H7           3.5240    -1.4230     3.3850 h1         1 9ZE       0.070700
     21 H8          -3.9800    -0.1620     2.3230 hc         1 9ZE       0.062033
     22 H9          -2.7010     0.7430     3.1450 hc         1 9ZE       0.062033
     23 H10         -2.6050    -1.0200     3.0320 hc         1 9ZE       0.062033
@<TRIPOS>BOND
     1     8    10 1
     2     8     7 1
     3    10     9 1
     4     7     4 1
     5     9     6 1
     6     4     6 ar
     7     4     2 ar
     8     6     5 ar
     9     2     1 ar
    10     5     3 ar
    11     1     3 ar
    12     3    11 1
    13    11    12 1
    14    11    13 2
    15     1    14 1
    16     2    15 1
    17     5    16 1
    18     8    17 1
    19     8    18 1
    20    10    19 1
    21    10    20 1
    22    12    21 1
    23    12    22 1
    24    12    23 1
@<TRIPOS>SUBSTRUCTURE
     1 9ZE         1 TEMP              0 ****  ****    0 ROOT
