@<TRIPOS>MOLECULE
9ZF
   42    45     1     0     0
SMALL
bcc


@<TRIPOS>ATOM
      1 C10          0.0000     0.0000     0.0000 c3         1 9ZF       0.045700
      2 C16         -4.3350    -3.9110     1.5030 ca         1 9ZF       0.067900
      3 C17         -5.5610    -4.4160     1.1070 ca         1 9ZF       0.060900
      4 C15         -3.5590    -3.1870     0.6050 ca         1 9ZF      -0.077400
      5 C12         -1.7110    -1.6870     0.4050 c          1 9ZF       0.583100
      6 C18         -6.0120    -4.2020    -0.1870 ca         1 9ZF       0.089900
      7 C20         -4.0150    -2.9760    -0.6880 ca         1 9ZF      -0.061000
      8 C19         -5.2380    -3.4850    -1.0830 ca         1 9ZF      -0.111000
      9 C01          2.0400     2.4990     1.4420 c3         1 9ZF      -0.014400
     10 C02          1.5300     1.2510     2.1640 c3         1 9ZF      -0.043200
     11 C03          2.0400     0.0000     1.4430 c3         1 9ZF      -0.014650
     12 C04          1.5300     0.0000     0.0000 c3         1 9ZF      -0.056200
     13 C05          2.0400     1.2480    -0.7220 c3         1 9ZF      -0.014650
     14 C06          1.5300     2.4980    -0.0000 c3         1 9ZF      -0.043200
     15 C07          0.0010     2.4990    -0.0010 c3         1 9ZF      -0.014650
     16 C08         -0.5100     1.2490     0.7200 c3         1 9ZF      -0.056200
     17 C09          0.0000     1.2500     2.1630 c3         1 9ZF      -0.014650
     18 N11         -0.4880    -1.1950     0.6910 ns         1 9ZF      -0.212900
     19 O13         -2.4070    -1.1380    -0.4260 o          1 9ZF      -0.706100
     20 N14         -2.1600    -2.7870     1.0420 ns         1 9ZF      -0.097100
     21 F21         -7.2090    -4.6950    -0.5740 f          1 9ZF      -0.113900
     22 F23         -3.8930    -4.1180     2.7630 f          1 9ZF      -0.114900
     23 H1          -0.3610    -0.0010    -1.0210 h1         1 9ZF       0.058700
     24 H2          -3.4120    -2.4130    -1.3900 ha         1 9ZF       0.174000
     25 H3          -5.5930    -3.3190    -2.0930 ha         1 9ZF       0.129000
     26 H4           3.1240     2.4990     1.4420 hc         1 9ZF       0.016200
     27 H5           1.6800     3.3840     1.9520 hc         1 9ZF       0.016200
     28 H6           1.8910     1.2510     3.1860 hc         1 9ZF       0.025200
     29 H7           3.1230    -0.0010     1.4440 hc         1 9ZF       0.016825
     30 H8           1.6780    -0.8840     1.9540 hc         1 9ZF       0.016825
     31 H9           1.8910    -0.8850    -0.5100 hc         1 9ZF       0.037200
     32 H10          1.6790     1.2480    -1.7430 hc         1 9ZF       0.016825
     33 H11          3.1240     1.2480    -0.7220 hc         1 9ZF       0.016825
     34 H12          1.8920     3.3820    -0.5110 hc         1 9ZF       0.025200
     35 H13         -0.3600     2.4990    -1.0230 hc         1 9ZF       0.016825
     36 H14         -0.3600     3.3840     0.5090 hc         1 9ZF       0.016825
     37 H15         -1.5930     1.2500     0.7200 hc         1 9ZF       0.037200
     38 H16         -0.3610     0.3660     2.6740 hc         1 9ZF       0.016825
     39 H17         -0.3610     2.1350     2.6730 hc         1 9ZF       0.016825
     40 H18          0.1030    -1.6730     1.3420 hn         1 9ZF       0.177500
     41 H19         -1.6690    -3.3410     1.7160 hn         1 9ZF       0.192500
     42 F22         -6.3170    -5.1170     1.9790 f          1 9ZF      -0.105900
@<TRIPOS>BOND
     1     1    12 1   
     2     1    16 1   
     3     1    18 1   
     4     1    23 1   
     5     2     3 ar  
     6     2     4 ar  
     7     2    22 1   
     8     3     6 ar  
     9     3    42 1   
    10     4     7 ar  
    11     4    20 1   
    12     5    18 1   
    13     5    19 2   
    14     5    20 1   
    15     6     8 ar  
    16     6    21 1   
    17     7     8 ar  
    18     7    24 1   
    19     8    25 1   
    20     9    10 1   
    21     9    14 1   
    22     9    26 1   
    23     9    27 1   
    24    10    11 1   
    25    10    17 1   
    26    10    28 1   
    27    11    12 1   
    28    11    29 1   
    29    11    30 1   
    30    12    13 1   
    31    12    31 1   
    32    13    14 1   
    33    13    32 1   
    34    13    33 1   
    35    14    15 1   
    36    14    34 1   
    37    15    16 1   
    38    15    35 1   
    39    15    36 1   
    40    16    17 1   
    41    16    37 1   
    42    17    38 1   
    43    17    39 1   
    44    18    40 1   
    45    20    41 1   
@<TRIPOS>SUBSTRUCTURE
     1 9ZF         1 TEMP              0 ****  ****    0 ROOT
