@<TRIPOS>MOLECULE
molecule
   34    36     1     0     0
SMALL
bcc


@<TRIPOS>ATOM
      1 CAK          0.0000     0.0000     0.0000 cx         1 9ZJ      -0.121900
      2 CAL          1.5300     0.0000     0.0000 cx         1 9ZJ      -0.121900
      3 CAS          0.7650     0.0000     1.3240 cx         1 9ZJ      -0.064600
      4 CAF          0.7650    -1.2460     2.1090 c1         1 9ZJ      -0.006100
      5 CAG          0.7460    -2.2360     2.7400 c1         1 9ZJ      -0.200100
      6 CAU          0.7460    -3.4810     3.5250 c3         1 9ZJ       0.432200
      7 CAT          2.1800    -3.7210     3.8590 c3         1 9ZJ       0.546900
      8 FAC          3.3610    -2.8990     3.3130 f          1 9ZJ      -0.245967
      9 FAD          2.6050    -4.8120     3.8100 f          1 9ZJ      -0.245967
     10 FAB          2.2980    -3.1030     5.4100 f          1 9ZJ      -0.245967
     11 OAN         -0.0520    -3.3100     4.2520 os         1 9ZJ      -0.200600
     12 CAR         -0.1830    -4.4400     5.1000 c3         1 9ZJ       0.299300
     13 CAA          0.9180    -4.7070     5.9500 c3         1 9ZJ      -0.258100
     14 NAM         -0.8240    -5.5220     4.3340 nu         1 9ZJ      -0.634600
     15 CAP         -0.0110    -5.7570     3.2140 ca         1 9ZJ       0.016600
     16 CAQ          0.6390    -4.5500     2.4880 ca         1 9ZJ      -0.227300
     17 CAJ          1.4440    -5.0880     1.3760 ca         1 9ZJ      -0.071000
     18 CAO          1.3440    -5.8610     0.6410 ca         1 9ZJ       0.080400
     19 Cl           2.3980    -6.6460    -0.5890 cl         1 9ZJ      -0.151400
     20 CAH          0.1160    -6.6850     0.6290 ca         1 9ZJ      -0.078000
     21 CAI         -0.4210    -6.7510     2.3320 ca         1 9ZJ      -0.148000
     22 H1          -0.4670    -0.9390    -0.2700 hc         1 9ZJ       0.081950
     23 H2          -0.4670     0.9390    -0.2700 hc         1 9ZJ       0.081950
     24 H3           1.9980     0.9390    -0.2700 hc         1 9ZJ       0.081950
     25 H4           1.9980    -0.9390    -0.2700 hc         1 9ZJ       0.081950
     26 H5           0.7660     0.9390     1.8640 hc         1 9ZJ       0.101700
     27 H6          -0.9580    -4.1420     5.7960 h2         1 9ZJ       0.092700
     28 H7           1.6680    -5.2670     5.4040 hc         1 9ZJ       0.096700
     29 H8           0.5850    -5.2860     6.8030 hc         1 9ZJ       0.096700
     30 H9           1.3450    -3.7720     6.2930 hc         1 9ZJ       0.096700
     31 H10         -0.8660    -6.3490     4.8950 hn         1 9ZJ       0.388800
     32 H11          2.4820    -4.7900     1.4560 ha         1 9ZJ       0.127000
     33 H12         -0.0590    -7.4740    -0.0930 ha         1 9ZJ       0.171000
     34 H13         -1.1670    -7.4640     2.6610 ha         1 9ZJ       0.146000
@<TRIPOS>BOND
     1    19    18 1
     2    18    20 ar
     3    18    17 ar
     4    20    21 ar
     5    17    16 ar
     6     8     7 1
     7    21    15 ar
     8    16    15 ar
     9    16     6 1
    10    15    14 1
    11     7    10 1
    12     7     9 1
    13     7     6 1
    14     6    11 1
    15     6     5 1
    16    14    12 1
    17    12    11 1
    18    12    13 1
    19     5     4 3
    20     4     3 1
    21     1     3 1
    22     1     2 1
    23     3     2 1
    24     1    22 1
    25     1    23 1
    26     2    24 1
    27     2    25 1
    28     3    26 1
    29    12    27 1
    30    13    28 1
    31    13    29 1
    32    13    30 1
    33    14    31 1
    34    17    32 1
    35    20    33 1
    36    21    34 1
@<TRIPOS>SUBSTRUCTURE
     1 9ZJ         1 TEMP              0 ****  ****    0 ROOT
