@<TRIPOS>MOLECULE
molecule
   67    72     1     0     0
SMALL
bcc


@<TRIPOS>ATOM
      1 N2           0.0000     0.0000     0.0000 ns         1 9ZP      -0.551900
      2 C3           1.4650     0.0000     0.0000 cx         1 9ZP       0.061700
      3 C4           2.1710     0.0000     1.3570 cx         1 9ZP      -0.158400
      4 C5           2.1710    -1.2640     0.4960 cx         1 9ZP      -0.158400
      5 C6          -0.6740     0.4930    -1.0590 c          1 9ZP       0.682700
      6 O7          -0.0660     0.9370    -2.0130 o          1 9ZP      -0.613100
      7 C8          -2.1500     0.4930    -1.0580 ca         1 9ZP      -0.139600
      8 C9          -2.8500     1.0040    -2.1560 ca         1 9ZP      -0.141000
      9 C10         -4.2300     1.0020    -2.1520 ca         1 9ZP       0.090100
     10 O11         -4.9140     1.4990    -3.2180 os         1 9ZP      -0.336900
     11 C12         -4.1390     2.0040    -4.3070 c3         1 9ZP       0.128700
     12 C13         -4.9240     0.4910    -1.0530 ca         1 9ZP       0.167600
     13 C14         -4.2270    -0.0160     0.0380 ca         1 9ZP      -0.114000
     14 C15         -2.8490    -0.0220     0.0360 ca         1 9ZP      -0.123000
     15 N16         -6.3180     0.4910    -1.0500 nu         1 9ZP      -0.744300
     16 C18         -7.0100    -0.5080    -0.3770 ca         1 9ZP       0.929900
     17 N19         -8.3270    -0.4200    -0.2840 nb         1 9ZP      -0.808000
     18 C20         -9.0290    -1.3550     0.3520 ca         1 9ZP       0.670200
     19 C21         -8.3250    -2.4250     0.9310 ca         1 9ZP      -0.130000
     20 C22         -6.9540    -2.4830     0.8080 ca         1 9ZP       0.465200
     21 N23         -6.3280    -1.5160     0.1450 nb         1 9ZP      -0.786000
     22 N24         -9.0640    -3.3810     1.6260 nh         1 9ZP      -0.693000
     23 C25         -8.7280    -4.2990     2.5860 c2         1 9ZP       0.525100
     24 N26         -9.7760    -4.7760     3.1670 n2         1 9ZP      -0.434400
     25 N27        -10.9540    -4.2490     2.6160 nu         1 9ZP      -0.687300
     26 C28        -10.5350    -3.4770     1.4420 c3         1 9ZP       0.511700
     27 C29        -11.0420    -2.0320     1.4870 c3         1 9ZP       0.150500
     28 C31        -10.6890    -1.4090     2.8390 c3         1 9ZP      -0.113400
     29 C32        -11.4660    -2.1220     3.9480 c3         1 9ZP      -0.082100
     30 N33        -10.4040    -1.2640     0.4120 nh         1 9ZP      -0.694300
     31 C34        -10.8390     0.1390     0.4400 c3         1 9ZP       0.191500
     32 C35        -10.5490     0.8070    -0.9150 c3         1 9ZP      -0.076900
     33 C36        -11.9090     1.2680    -1.4800 c3         1 9ZP      -0.086400
     34 C37        -12.8110     1.4090    -0.2290 c3         1 9ZP      -0.086400
     35 C38        -12.3650     0.2160     0.6520 c3         1 9ZP      -0.076900
     36 H2          -0.5000    -0.3350     0.7990 hn         1 9ZP       0.318500
     37 H3           1.9880     0.5340    -0.7840 h1         1 9ZP       0.123700
     38 H41C         1.5210    -0.0240     2.2230 hc         1 9ZP       0.077200
     39 H42C         3.1100     0.5390     1.3950 hc         1 9ZP       0.077200
     40 H51C         3.1090    -1.4970     0.0070 hc         1 9ZP       0.077200
     41 H52C         1.5190    -2.0610     0.8350 hc         1 9ZP       0.077200
     42 H9          -2.3110     1.3310    -3.0370 ha         1 9ZP       0.164000
     43 H15         -2.3080    -0.4180     0.8870 ha         1 9ZP       0.125000
     44 H121        -3.5020     2.8060    -3.9550 h1         1 9ZP       0.045033
     45 H122        -4.8020     2.3810    -5.0770 h1         1 9ZP       0.045033
     46 H123        -3.5270     1.2090    -4.7150 h1         1 9ZP       0.045033
     47 H14         -4.7680    -0.4140     0.8880 ha         1 9ZP       0.168000
     48 H16         -6.8190     1.2280    -1.5040 hn         1 9ZP       0.475800
     49 H22         -6.3960    -3.3080     1.2350 h4         1 9ZP       0.032100
     50 H25         -7.8500    -4.9210     2.4580 h5         1 9ZP       0.074800
     51 H28        -10.7940    -3.9730     0.5150 h2         1 9ZP       0.070700
     52 H27        -11.8930    -4.4610     2.8920 hn         1 9ZP       0.501800
     53 H29        -12.1160    -2.0230     1.3480 h1         1 9ZP       0.083700
     54 H311        -9.6260    -1.5140     3.0190 hc         1 9ZP       0.055200
     55 H312       -10.9520    -0.3590     2.8320 hc         1 9ZP       0.055200
     56 H321       -10.8330    -2.8730     4.4060 hc         1 9ZP       0.036367
     57 H322       -11.7710    -1.4010     4.6960 hc         1 9ZP       0.036367
     58 H323       -12.3430    -2.5980     3.5260 hc         1 9ZP       0.036367
     59 H34        -10.3290     0.6750     1.2320 h1         1 9ZP       0.047700
     60 H351        -9.8990     1.6630    -0.7740 hc         1 9ZP       0.056700
     61 H352       -10.0920     0.0940    -1.5890 hc         1 9ZP       0.056700
     62 H381       -12.8400    -0.6990     0.3170 hc         1 9ZP       0.056700
     63 H382       -12.5930     0.4100     1.6940 hc         1 9ZP       0.056700
     64 H361       -12.3110     0.5200    -2.1520 hc         1 9ZP       0.045950
     65 H362       -11.8060     2.2220    -1.9810 hc         1 9ZP       0.045950
     66 H371       -12.6200     2.3490     0.2760 hc         1 9ZP       0.045950
     67 H372       -13.8560     1.3160    -0.4990 hc         1 9ZP       0.045950
@<TRIPOS>BOND
     1     1     2 1
     2     1     5 1
     3     2     3 1
     4     2     4 1
     5     3     4 1
     6     5     6 2
     7     5     7 1
     8     7     8 ar
     9     7    14 ar
    10     8     9 ar
    11     9    10 1
    12     9    12 ar
    13    10    11 1
    14    12    13 ar
    15    12    15 1
    16    13    14 ar
    17    15    16 1
    18    16    17 ar
    19    16    21 ar
    20    17    18 ar
    21    18    19 ar
    22    18    30 1
    23    19    20 ar
    24    19    22 1
    25    20    21 ar
    26    22    23 1
    27    22    26 1
    28    23    24 2
    29    24    25 1
    30    25    26 1
    31    26    27 1
    32    27    28 1
    33    27    30 1
    34    28    29 1
    35    30    31 1
    36    31    32 1
    37    31    35 1
    38    32    33 1
    39    33    34 1
    40    34    35 1
    41     1    36 1
    42     2    37 1
    43     3    38 1
    44     3    39 1
    45     4    40 1
    46     4    41 1
    47     8    42 1
    48    14    43 1
    49    11    44 1
    50    11    45 1
    51    11    46 1
    52    13    47 1
    53    15    48 1
    54    20    49 1
    55    23    50 1
    56    26    51 1
    57    25    52 1
    58    27    53 1
    59    28    54 1
    60    28    55 1
    61    29    56 1
    62    29    57 1
    63    29    58 1
    64    31    59 1
    65    32    60 1
    66    32    61 1
    67    35    62 1
    68    35    63 1
    69    33    64 1
    70    33    65 1
    71    34    66 1
    72    34    67 1
@<TRIPOS>SUBSTRUCTURE
     1 9ZP         1 TEMP              0 ****  ****    0 ROOT
