@<TRIPOS>MOLECULE
molecule
   35    38     1     0     0
SMALL
bcc


@<TRIPOS>ATOM
      1 C4           0.0000     0.0000     0.0000 ca         1 9ZS      -0.078900
      2 C5           1.3960     0.0000     0.0000 ca         1 9ZS       0.050900
      3 C6           2.0840     0.0000     1.1990 ca         1 9ZS      -0.119000
      4 C11         -2.3920     0.1120    -2.7460 ca         1 9ZS      -0.038200
      5 C8          -0.7430    -0.0000    -1.2780 cc         1 9ZS       0.445400
      6 C12         -3.5550     0.2070    -3.5040 ca         1 9ZS      -0.297300
      7 C13         -3.4750     0.0880    -4.8630 ca         1 9ZS       0.467200
      8 C3          -0.6920    -0.0050     1.2140 ca         1 9ZS       0.050900
      9 C1           1.3920    -0.0010     2.3970 ca         1 9ZS      -0.104000
     10 C2           0.0080    -0.0110     2.4040 ca         1 9ZS      -0.119000
     11 Cl7          2.2660    -0.0010    -1.5020 cl         1 9ZS      -0.071900
     12 N9          -2.0960     0.1740    -1.4040 na         1 9ZS      -0.253300
     13 N14         -2.3170    -0.1140    -5.4720 nb         1 9ZS      -0.704000
     14 C15         -1.1790    -0.2140    -4.8100 ca         1 9ZS       0.622200
     15 C16         -1.1690    -0.1030    -3.4100 ca         1 9ZS      -0.077900
     16 N17         -0.2050    -0.1570    -2.4630 nd         1 9ZS      -0.566100
     17 N18          0.0120    -0.4280    -5.4990 ns         1 9ZS      -0.536400
     18 C19          0.0030    -0.5340    -6.8420 c          1 9ZS       0.679100
     19 O20         -1.0410    -0.4440    -7.4510 o          1 9ZS      -0.533100
     20 C21          1.2920    -0.7670    -7.5880 cx         1 9ZS      -0.238700
     21 C22          1.4820    -2.1250    -8.2660 cx         1 9ZS      -0.109400
     22 C23          1.2160    -0.8780    -9.1120 cx         1 9ZS      -0.109400
     23 Cl24        -2.4280    -0.0040     1.2250 cl         1 9ZS      -0.071900
     24 H1           3.1670     0.0040     1.2000 ha         1 9ZS       0.153000
     25 H2          -4.5120     0.3730    -3.0230 ha         1 9ZS       0.135000
     26 H3          -4.3790     0.1620    -5.4560 h4         1 9ZS       0.031100
     27 H4           1.9360    -0.0030     3.3340 ha         1 9ZS       0.148000
     28 H5          -0.5270    -0.0140     3.3460 ha         1 9ZS       0.153000
     29 H6          -2.7240     0.4510    -0.6760 hn         1 9ZS       0.322700
     30 H8           0.8790    -0.4680    -5.0000 hn         1 9ZS       0.345500
     31 H9           2.2030    -0.3170    -7.2110 hc         1 9ZS       0.086700
     32 H10          2.4990    -2.4980    -8.2900 hc         1 9ZS       0.084700
     33 H11          0.6500    -2.8130    -8.1740 hc         1 9ZS       0.084700
     34 H12          2.0710    -0.4890    -9.6520 hc         1 9ZS       0.084700
     35 H13          0.2230    -0.8040    -9.5370 hc         1 9ZS       0.084700
@<TRIPOS>BOND
     1     6     7 ar
     2     6     4 ar
     3    12     4 1
     4    12     5 1
     5     7    13 ar
     6     4    15 ar
     7     5     1 1
     8     5    16 2
     9    23     8 1
    10     8     1 ar
    11     8    10 ar
    12     1     2 ar
    13    13    14 ar
    14    11     2 1
    15     2     3 ar
    16    10     9 ar
    17     9     3 ar
    18    15    16 1
    19    15    14 ar
    20    14    17 1
    21    17    18 1
    22    19    18 2
    23    18    20 1
    24    20    22 1
    25    20    21 1
    26    22    21 1
    27     3    24 1
    28     6    25 1
    29     7    26 1
    30     9    27 1
    31    10    28 1
    32    12    29 1
    33    17    30 1
    34    20    31 1
    35    21    32 1
    36    21    33 1
    37    22    34 1
    38    22    35 1
@<TRIPOS>SUBSTRUCTURE
     1 9ZS         1 TEMP              0 ****  ****    0 ROOT
