@<TRIPOS>MOLECULE
molecule
   39    40     1     0     0
SMALL
bcc


@<TRIPOS>ATOM
      1 CAA          0.0000     0.0000     0.0000 c3         1 9ZT       0.132700
      2 OAN          1.4280     0.0000     0.0000 os         1 9ZT      -0.339900
      3 CAR          2.0460     0.0000     1.2100 ca         1 9ZT       0.120100
      4 CAK          3.4310     0.0000     1.2850 ca         1 9ZT      -0.188500
      5 CAI          4.0550     0.0000     2.5160 ca         1 9ZT      -0.085500
      6 CAJ          1.2920     0.0060     2.3750 ca         1 9ZT      -0.188500
      7 CAH          1.9210     0.0050     3.6040 ca         1 9ZT      -0.085500
      8 CAQ          3.3010    -0.0000     3.6750 ca         1 9ZT      -0.104300
      9 CAL          3.9860    -0.0010     5.0180 c3         1 9ZT      -0.030100
     10 CAP          5.2020     2.1150     4.5420 c          1 9ZT       0.570100
     11 OAC          4.8490     3.0070     3.8080 o          1 9ZT      -0.516100
     12 CAT          6.6410     1.6500     4.5600 c3         1 9ZT       0.041100
     13 CAU          4.2180     1.4410     5.4730 c3         1 9ZT      -0.136700
     14 OAF          7.4430     2.5400     3.7820 oh         1 9ZT      -0.589800
     15 CAS          7.1350     1.6460     6.0100 c3         1 9ZT       0.137100
     16 OAE          8.4500     1.0900     6.0640 oh         1 9ZT      -0.620800
     17 CAM          6.1890     0.8040     6.8670 c3         1 9ZT      -0.096400
     18 CAV          4.8050     1.4470     6.8880 c3         1 9ZT       0.053800
     19 CAO          3.9010     0.6620     7.8040 c          1 9ZT       0.864600
     20 OAB          4.1340    -0.5010     8.0330 o          1 9ZT      -0.827300
     21 OAD          2.8350     1.2560     8.3640 o          1 9ZT      -0.827300
     22 OAG          4.9110     2.7910     7.3610 oh         1 9ZT      -0.622800
     23 HAM1         6.1160    -0.1920     6.4490 hc         1 9ZT       0.063200
     24 HAM2         6.5740     0.7490     7.8780 hc         1 9ZT       0.063200
     25 HAG          4.6610     2.8260     8.2690 ho         1 9ZT       0.423000
     26 HAU          3.2820     1.9860     5.4670 hc         1 9ZT       0.101700
     27 HAS          7.1520     2.6620     6.3860 h1         1 9ZT       0.063700
     28 HAE          9.0100     1.6580     6.5670 ho         1 9ZT       0.396000
     29 HAT          6.7030     0.6470     4.1540 h1         1 9ZT       0.052700
     30 HAF          7.8400     2.0650     3.0700 ho         1 9ZT       0.393000
     31 HAL1         3.3620    -0.5110     5.7420 hc         1 9ZT       0.073700
     32 HAL2         4.9380    -0.5120     4.9380 hc         1 9ZT       0.073700
     33 HAI          5.1360    -0.0450     2.5740 ha         1 9ZT       0.137500
     34 HAH          1.3320    -0.0090     4.5130 ha         1 9ZT       0.137500
     35 HAK          4.0220    -0.0340     0.3780 ha         1 9ZT       0.128500
     36 HAJ          0.2100    -0.0200     2.3200 ha         1 9ZT       0.128500
     37 HAA1        -0.3610    -0.8860     0.5070 h1         1 9ZT       0.035367
     38 HAA2        -0.3610     0.0040    -1.0210 h1         1 9ZT       0.035367
     39 HAA3        -0.3610     0.8830     0.5140 h1         1 9ZT       0.035367
@<TRIPOS>BOND
     1    20    19 1
     2    19    21 1
     3    19    18 1
     4    18    17 1
     5    18    22 1
     6    18    13 1
     7    17    15 1
     8    15    16 1
     9    15    12 1
    10    12    14 1
    11    12    10 1
    12    10    11 2
    13    10    13 1
    14    13     9 1
    15     9     8 1
    16     8     5 ar
    17     8     7 ar
    18     5     4 ar
    19     4     3 ar
    20     7     6 ar
    21     6     3 ar
    22     3     2 1
    23     2     1 1
    24    17    23 1
    25    17    24 1
    26    22    25 1
    27    13    26 1
    28    15    27 1
    29    16    28 1
    30    12    29 1
    31    14    30 1
    32     9    31 1
    33     9    32 1
    34     5    33 1
    35     7    34 1
    36     4    35 1
    37     6    36 1
    38     1    37 1
    39     1    38 1
    40     1    39 1
@<TRIPOS>SUBSTRUCTURE
     1 9ZT         1 TEMP              0 ****  ****    0 ROOT
