@<TRIPOS>MOLECULE
9ZT
   39    40     1     0     0
SMALL
bcc


@<TRIPOS>ATOM
      1 CAA        -0.7070   -0.2530    0.7540 c3        1 9ZT      0.118700
      2 OAN         0.6490   -0.3640    0.3460 os        1 9ZT     -0.341900
      3 CAR         1.5940   -0.2260    1.3540 ca        1 9ZT      0.099100
      4 CAK         2.9290   -0.3120    0.9270 ca        1 9ZT     -0.185500
      5 CAI         3.9490   -0.1890    1.8660 ca        1 9ZT     -0.092000
      6 CAJ         1.2860   -0.0200    2.7040 ca        1 9ZT     -0.185500
      7 CAH         2.3200    0.1000    3.6300 ca        1 9ZT     -0.092000
      8 CAQ         3.6580    0.0160    3.2190 ca        1 9ZT     -0.097300
      9 CAL         4.7460    0.1190    4.2300 c3        1 9ZT     -0.038100
     10 CAP         6.0930    2.1900    4.5170 c         1 9ZT      0.572100
     11 OAC         6.1790    3.1410    3.7310 o         1 9ZT     -0.561100
     12 CAT         7.3350    1.6640    5.2120 c3        1 9ZT     -0.004900
     13 CAU         4.8030    1.5040    4.8770 c3        1 9ZT     -0.156700
     14 OAF         8.5080    2.3880    4.8750 oh        1 9ZT     -0.615800
     15 CAS         7.1240    1.6980    6.7370 c3        1 9ZT      0.131100
     16 OAE         8.2360    1.1070    7.3940 oh        1 9ZT     -0.605800
     17 CAM         5.8770    0.9120    7.1150 c3        1 9ZT     -0.061400
     18 CAV         4.6410    1.4670    6.4160 c3        1 9ZT      0.027800
     19 CAO         3.3770    0.6230    6.7910 c         1 9ZT      0.900600
     20 OAB         3.5010   -0.6150    6.9750 o         1 9ZT     -0.818800
     21 OAD         2.2930    1.2690    6.8690 o         1 9ZT     -0.818800
     22 OAG         4.4660    2.8120    6.8550 oh        1 9ZT     -0.638800
     23 HAM1        5.9900   -0.1690    6.8420 hc        1 9ZT      0.071700
     24 HAM2        5.7280    0.9720    8.2230 hc        1 9ZT      0.071700
     25 HAG         3.5100    2.9490    6.9640 ho        1 9ZT      0.433000
     26 HAU         3.9500    2.1310    4.4870 hc        1 9ZT      0.092700
     27 HAS         7.0250    2.7690    7.0720 h1        1 9ZT      0.050700
     28 HAE         9.0230    1.5140    7.0100 ho        1 9ZT      0.401000
     29 HAT         7.5400    0.6060    4.8810 h1        1 9ZT      0.093700
     30 HAF         8.2410    3.2920    4.6590 ho        1 9ZT      0.416000
     31 HAL1        4.5650   -0.6560    5.0320 hc        1 9ZT      0.071200
     32 HAL2        5.7310   -0.1240    3.7490 hc        1 9ZT      0.071200
     33 HAI         4.9960   -0.2530    1.5340 ha        1 9ZT      0.159500
     34 HAH         2.0930    0.2610    4.7040 ha        1 9ZT      0.159500
     35 HAK         3.1510   -0.4720   -0.1360 ha        1 9ZT      0.132000
     36 HAJ         0.2450    0.0490    3.0480 ha        1 9ZT      0.132000
     37 HAA1       -0.9050    0.7510    1.2030 h1        1 9ZT      0.036700
     38 HAA2       -1.2810   -0.3780   -0.1990 h1        1 9ZT      0.036700
     39 HAA3       -0.9700   -1.0610    1.4790 h1        1 9ZT      0.036700
@<TRIPOS>BOND
     1    1    2 1   
     2    1   37 1   
     3    1   38 1   
     4    1   39 1   
     5    2    3 1   
     6    3    4 ar  
     7    3    6 ar  
     8    4    5 ar  
     9    4   35 1   
    10    5    8 ar  
    11    5   33 1   
    12    6    7 ar  
    13    6   36 1   
    14    7    8 ar  
    15    7   34 1   
    16    8    9 1   
    17    9   13 1   
    18    9   31 1   
    19    9   32 1   
    20   10   11 2   
    21   10   12 1   
    22   10   13 1   
    23   12   14 1   
    24   12   15 1   
    25   12   29 1   
    26   13   18 1   
    27   13   26 1   
    28   14   30 1   
    29   15   16 1   
    30   15   17 1   
    31   15   27 1   
    32   16   28 1   
    33   17   18 1   
    34   17   23 1   
    35   17   24 1   
    36   18   19 1   
    37   18   22 1   
    38   19   20 1   
    39   19   21 1   
    40   22   25 1   
@<TRIPOS>SUBSTRUCTURE
     1 9ZT         1 TEMP              0 ****  ****    0 ROOT
