@<TRIPOS>MOLECULE
molecule
   42    45     1     0     0
SMALL
bcc


@<TRIPOS>ATOM
      1 C13          0.0000     0.0000     0.0000 c3         1 9ZV      -0.042400
      2 N2           2.1680     0.0000     1.1250 nc         1 9ZV      -0.461100
      3 C17         -1.4210     3.6500    -1.7040 ca         1 9ZV      -0.130000
      4 C11          2.2510    -0.0020    -1.2650 c          1 9ZV       0.591200
      5 C9           7.7280    -0.0040     1.2810 ca         1 9ZV      -0.187300
      6 C8           8.4680    -0.0060     0.1200 ca         1 9ZV      -0.095000
      7 N1           3.5870    -0.0030    -1.2400 nd         1 9ZV      -0.454400
      8 O1           2.5020     0.0030     6.0280 o          1 9ZV      -0.850800
      9 O2           1.6540    -0.0020    -2.3310 o          1 9ZV      -0.561100
     10 C1           4.4810    -0.0010     4.7480 c3         1 9ZV      -0.174400
     11 C3           4.2710    -0.0020     2.2770 cd         1 9ZV       0.614800
     12 C4           6.3330    -0.0030     1.2120 ca         1 9ZV       0.459600
     13 C5           5.7040    -0.0040    -0.0540 ca         1 9ZV      -0.201300
     14 C6           6.4720    -0.0050    -1.2160 ca         1 9ZV      -0.049000
     15 C7           7.8460    -0.0060    -1.1210 ca         1 9ZV      -0.169000
     16 C10          4.2350    -0.0030    -0.0910 cc         1 9ZV       0.172700
     17 C12          1.5070     0.0000     0.0000 cd         1 9ZV       0.305300
     18 C14         -0.5020     1.2880    -0.6010 ca         1 9ZV      -0.094300
     19 C19         -0.7370     2.3830     0.2080 ca         1 9ZV      -0.103000
     20 C18         -1.1970     3.5650    -0.3430 ca         1 9ZV      -0.137500
     21 C16         -1.1910     2.5530    -2.5130 ca         1 9ZV      -0.137500
     22 C15         -0.7320     1.3720    -1.9620 ca         1 9ZV      -0.103000
     23 N3           3.5690    -0.0020     1.1050 na         1 9ZV      -0.051800
     24 C            3.7110     0.0010     6.0430 c          1 9ZV       0.888600
     25 O            4.3680     0.0010     7.2140 o          1 9ZV      -0.850800
     26 N            5.5670    -0.0030     2.3300 nc         1 9ZV      -0.716000
     27 H1          -0.3610    -0.8370    -0.5850 hc         1 9ZV       0.074700
     28 H2          -0.3610    -0.0880     1.0170 hc         1 9ZV       0.074700
     29 H3          -1.7810     4.5760    -2.1360 ha         1 9ZV       0.120000
     30 H4           8.2250    -0.0040     2.2440 ha         1 9ZV       0.158000
     31 H5           9.5500    -0.0060     0.1760 ha         1 9ZV       0.128000
     32 H7           5.1060     0.8830     4.6970 hc         1 9ZV       0.045700
     33 H8           5.1030    -0.8860     4.6990 hc         1 9ZV       0.045700
     34 H9           2.8790     0.8850     3.6210 hc         1 9ZV       0.086200
     35 H10          2.8770    -0.8840     3.6230 hc         1 9ZV       0.086200
     36 H11          5.9920    -0.0050    -2.1870 ha         1 9ZV       0.159000
     37 H12          8.4470    -0.0070    -2.0230 ha         1 9ZV       0.128000
     38 H13         -0.5610     2.3150     1.2750 ha         1 9ZV       0.146500
     39 H14         -1.3790     4.4240     0.2910 ha         1 9ZV       0.126000
     40 H15         -1.3690     2.6200    -3.5800 ha         1 9ZV       0.126000
     41 H16         -0.5520     0.5120    -2.5950 ha         1 9ZV       0.146500
     42 C2           3.5010    -0.0000     3.5720 c3         1 9ZV      -0.115700
@<TRIPOS>BOND
     1     6    15 ar
     2     6     5 ar
     3    15    14 ar
     4     5    12 ar
     5    14    13 ar
     6    12    13 ar
     7    12    26 1
     8    13    16 1
     9    26    11 2
    10    16     7 2
    11    16    23 1
    12     7     4 1
    13    11    23 1
    14    11    42 1
    15     8    24 1
    16    23     2 1
    17    10    24 1
    18    10    42 1
    19     4     9 2
    20     4    17 1
    21    24    25 1
    22     2    17 2
    23    17     1 1
    24     1    18 1
    25    18    22 ar
    26    18    19 ar
    27    22    21 ar
    28    19    20 ar
    29    21     3 ar
    30    20     3 ar
    31     1    27 1
    32     1    28 1
    33     3    29 1
    34     5    30 1
    35     6    31 1
    36    10    32 1
    37    10    33 1
    38    42    34 1
    39    42    35 1
    40    14    36 1
    41    15    37 1
    42    19    38 1
    43    20    39 1
    44    21    40 1
    45    22    41 1
@<TRIPOS>SUBSTRUCTURE
     1 9ZV         1 TEMP              0 ****  ****    0 ROOT
