@<TRIPOS>MOLECULE
9ZV
   42    45     1     0     0
SMALL
bcc


@<TRIPOS>ATOM
      1 C13          0.0000     0.0000     0.0000 c3         1 9ZV       0.022600
      2 N2           2.1680     0.0000     1.1250 nc         1 9ZV      -0.553100
      3 C17         -1.4210     3.6500    -1.7040 ca         1 9ZV      -0.107000
      4 C11          2.2510    -0.0020    -1.2650 c          1 9ZV       0.593200
      5 C9           7.7280    -0.0040     1.2810 ca         1 9ZV      -0.156300
      6 C8           8.4680    -0.0060     0.1200 ca         1 9ZV      -0.071000
      7 N1           3.5870    -0.0030    -1.2400 nc         1 9ZV      -0.379400
      8 O1           2.5020     0.0030     6.0280 o          1 9ZV      -0.900800
      9 O2           1.6540    -0.0020    -2.3310 o          1 9ZV      -0.596100
     10 C1           4.4810    -0.0010     4.7480 c3         1 9ZV      -0.130400
     11 C3           4.2710    -0.0020     2.2770 cc         1 9ZV       0.390800
     12 C4           6.3330    -0.0030     1.2120 ca         1 9ZV       0.407600
     13 C5           5.7040    -0.0040    -0.0540 ca         1 9ZV      -0.200300
     14 C6           6.4720    -0.0050    -1.2160 ca         1 9ZV      -0.022000
     15 C7           7.8460    -0.0060    -1.1210 ca         1 9ZV      -0.138000
     16 C10          4.2350    -0.0030    -0.0910 cd         1 9ZV      -0.014300
     17 C12          1.5070     0.0000     0.0000 cd         1 9ZV       0.319300
     18 C14         -0.5020     1.2880    -0.6010 ca         1 9ZV      -0.100300
     19 C19         -0.7370     2.3830     0.2080 ca         1 9ZV      -0.082000
     20 C18         -1.1970     3.5650    -0.3430 ca         1 9ZV      -0.110000
     21 C16         -1.1910     2.5530    -2.5130 ca         1 9ZV      -0.110000
     22 C15         -0.7320     1.3720    -1.9620 ca         1 9ZV      -0.082000
     23 N3           3.5690    -0.0020     1.1050 na         1 9ZV       0.388200
     24 C            3.7110     0.0010     6.0430 c          1 9ZV       0.978600
     25 O            4.3680     0.0010     7.2140 o          1 9ZV      -0.900800
     26 N            5.5670    -0.0030     2.3300 nd         1 9ZV      -0.592000
     27 H1          -0.3610    -0.8370    -0.5850 hc         1 9ZV       0.038200
     28 H2          -0.3610    -0.0880     1.0170 hc         1 9ZV       0.038200
     29 H3          -1.7810     4.5760    -2.1360 ha         1 9ZV       0.094000
     30 H4           8.2250    -0.0040     2.2440 ha         1 9ZV       0.127000
     31 H5           9.5500    -0.0060     0.1760 ha         1 9ZV       0.098000
     32 H7           5.1060     0.8830     4.6970 hc         1 9ZV       0.019700
     33 H8           5.1030    -0.8860     4.6990 hc         1 9ZV       0.019700
     34 H9           2.8790     0.8850     3.6210 hc         1 9ZV       0.051700
     35 H10          2.8770    -0.8840     3.6230 hc         1 9ZV       0.051700
     36 H11          5.9920    -0.0050    -2.1870 ha         1 9ZV       0.129000
     37 H12          8.4470    -0.0070    -2.0230 ha         1 9ZV       0.102000
     38 H13         -0.5610     2.3150     1.2750 ha         1 9ZV       0.123000
     39 H14         -1.3790     4.4240     0.2910 ha         1 9ZV       0.099500
     40 H15         -1.3690     2.6200    -3.5800 ha         1 9ZV       0.099500
     41 H16         -0.5520     0.5120    -2.5950 ha         1 9ZV       0.123000
     42 C2           3.5010    -0.0000     3.5720 c3         1 9ZV      -0.065700
@<TRIPOS>BOND
     1     1    17 1   
     2     1    18 1   
     3     1    27 1   
     4     1    28 1   
     5     2    17 2   
     6     2    23 1   
     7     3    20 ar  
     8     3    21 ar  
     9     3    29 1   
    10     4     7 1   
    11     4     9 2   
    12     4    17 1   
    13     5     6 ar  
    14     5    12 ar  
    15     5    30 1   
    16     6    15 ar  
    17     6    31 1   
    18     7    16 2   
    19     8    24 1   
    20    10    24 1   
    21    10    32 1   
    22    10    33 1   
    23    10    42 1   
    24    11    23 1   
    25    11    26 2   
    26    11    42 1   
    27    12    13 ar  
    28    12    26 1   
    29    13    14 ar  
    30    13    16 1   
    31    14    15 ar  
    32    14    36 1   
    33    15    37 1   
    34    16    23 1   
    35    18    19 ar  
    36    18    22 ar  
    37    19    20 ar  
    38    19    38 1   
    39    20    39 1   
    40    21    22 ar  
    41    21    40 1   
    42    22    41 1   
    43    24    25 1   
    44    34    42 1   
    45    35    42 1   
@<TRIPOS>SUBSTRUCTURE
     1 9ZV         1 TEMP              0 ****  ****    0 ROOT
