@<TRIPOS>MOLECULE
molecule
   39    42     1     0     0
SMALL
bcc


@<TRIPOS>ATOM
      1 O3           0.0000     0.0000     0.0000 o          1 9ZY      -0.814800
      2 C4           6.2840    -1.0750    -3.1600 cc         1 9ZY       0.201800
      3 C5           7.6090    -0.8940    -2.7700 cd         1 9ZY      -0.383100
      4 C6           7.6050     0.1680    -1.7590 cd         1 9ZY       0.419800
      5 N1           5.5320    -0.2010    -2.4440 na         1 9ZY       0.154300
      6 C7           4.0330     0.0000    -2.4870 ca         1 9ZY      -0.015200
      7 C8           3.3490     0.0010    -1.2830 ca         1 9ZY      -0.061000
      8 C9           1.9530     0.0010    -1.2800 ca         1 9ZY      -0.089600
      9 C10          1.2560     0.0010    -2.4910 ca         1 9ZY       0.058400
     10 C11          1.9500     0.0010    -3.6860 ca         1 9ZY      -0.145000
     11 C12          3.3330     0.0070    -3.6870 ca         1 9ZY      -0.135000
     12 C13          1.2150     0.0000     0.0000 c          1 9ZY       0.877200
     13 C14          8.7880     0.7110    -1.0490 ca         1 9ZY      -0.109500
     14 C15          8.9430     2.0880    -0.9010 ca         1 9ZY      -0.102500
     15 O2           1.8880     0.0000     1.1660 o          1 9ZY      -0.814800
     16 Cl          -0.4800     0.0010    -2.4950 cl         1 9ZY      -0.075400
     17 O1           5.9770    -1.9990    -4.0900 os         1 9ZY      -0.295200
     18 C3           6.9330    -2.7570    -4.6550 c          1 9ZY       0.761800
     19 O            6.6250    -3.5850    -5.4940 o          1 9ZY      -0.600500
     20 C2           8.2830    -2.6060    -4.2900 cc         1 9ZY      -0.353200
     21 N            6.3580     0.5480    -1.6020 nc         1 9ZY      -0.442800
     22 C1           8.6260    -1.6810    -3.3540 cd         1 9ZY       0.099600
     23 C           10.0660    -1.4980    -2.9450 c3         1 9ZY      -0.068900
     24 C19          9.7450    -0.1550    -0.5220 ca         1 9ZY      -0.102500
     25 C18         10.8440     0.3570     0.1390 ca         1 9ZY      -0.137500
     26 C17         10.9950     1.7250     0.2780 ca         1 9ZY      -0.125000
     27 C16         10.0460     2.5880    -0.2370 ca         1 9ZY      -0.137500
     28 H1           3.8710    -0.2300    -0.3620 ha         1 9ZY       0.182000
     29 H2           1.4100    -0.0030    -4.6250 ha         1 9ZY       0.133000
     30 H3           3.8640    -0.1200    -4.6220 ha         1 9ZY       0.130000
     31 H4           8.2000     2.7650    -1.3040 ha         1 9ZY       0.145500
     32 H6           9.0450    -3.2220    -4.7530 ha         1 9ZY       0.162000
     33 H7          10.2630    -0.4460    -2.7770 hc         1 9ZY       0.053367
     34 H8          10.7140    -1.8660    -3.7320 hc         1 9ZY       0.053367
     35 H9          10.2550    -2.0520    -2.0330 hc         1 9ZY       0.053367
     36 H10          9.6270    -1.2260    -0.6300 ha         1 9ZY       0.145500
     37 H11         11.5900    -0.3140     0.5470 ha         1 9ZY       0.128500
     38 H12         11.8590     2.1220     0.7980 ha         1 9ZY       0.124000
     39 H13         10.1690     3.6580    -0.1230 ha         1 9ZY       0.128500
@<TRIPOS>BOND
     1     1    12 1
     2    15    12 1
     3    12     8 1
     4    27    14 ar
     5    27    26 ar
     6     8     7 ar
     7     8     9 ar
     8    14    13 ar
     9    26    25 ar
    10    16     9 1
    11     7     6 ar
    12     9    10 ar
    13    21     4 2
    14    21     5 1
    15    13     4 1
    16    13    24 ar
    17    25    24 ar
    18     6     5 1
    19     6    11 ar
    20     4     3 1
    21    10    11 ar
    22     5     2 1
    23     3     2 2
    24     3    22 1
    25     2    17 1
    26    17    18 1
    27    22    23 1
    28    22    20 2
    29    18    20 1
    30    18    19 2
    31     7    28 1
    32    10    29 1
    33    11    30 1
    34    14    31 1
    35    20    32 1
    36    23    33 1
    37    23    34 1
    38    23    35 1
    39    24    36 1
    40    25    37 1
    41    26    38 1
    42    27    39 1
@<TRIPOS>SUBSTRUCTURE
     1 9ZY         1 TEMP              0 ****  ****    0 ROOT
