@<TRIPOS>MOLECULE
molecule
   36    39     1     0     0
SMALL
bcc


@<TRIPOS>ATOM
      1 O3           0.0000     0.0000     0.0000 o          1 9ZZ      -0.810300
      2 C4           5.6070    -1.1570     1.7000 ca         1 9ZZ       0.437000
      3 C5           6.2390    -2.3020     2.1690 ca         1 9ZZ      -0.078400
      4 O4           1.9540     0.0000     1.0530 o          1 9ZZ      -0.810300
      5 C6           6.1730    -3.4770     1.4360 ca         1 9ZZ       0.200100
      6 C7           5.4760    -3.5200     0.2270 ca         1 9ZZ      -0.011100
      7 C8           4.8500    -2.4060    -0.2500 ca         1 9ZZ       0.003000
      8 C9           4.9070    -1.2100     0.4780 ca         1 9ZZ      -0.196300
      9 C10          5.1560     2.2670     2.7650 cc         1 9ZZ      -0.141400
     10 C11          4.5380     3.4480     2.3370 c          1 9ZZ       0.602500
     11 C12          4.2440    -0.0010    -0.0120 cc         1 9ZZ       0.199000
     12 C13          3.4960    -0.0020    -1.2840 ca         1 9ZZ      -0.095000
     13 C14          4.1800    -0.0090    -2.5000 ca         1 9ZZ      -0.132000
     14 C15          3.4750    -0.0100    -3.6880 ca         1 9ZZ      -0.151000
     15 C            3.8210     3.4790     1.1210 cc         1 9ZZ      -0.080400
     16 O            5.6620    -0.0120     2.4090 os         1 9ZZ      -0.353800
     17 C1           3.7270     2.3620     0.3560 cd         1 9ZZ       0.035800
     18 C16          2.0910    -0.0030    -3.6820 ca         1 9ZZ      -0.137000
     19 C17          1.3950     0.0030    -2.4870 ca         1 9ZZ      -0.092000
     20 C18          2.0860    -0.0020    -1.2780 ca         1 9ZZ      -0.072600
     21 C19          1.3470     0.0000     0.0000 c          1 9ZZ       0.870200
     22 C2           4.3440     1.1660     0.7760 cd         1 9ZZ      -0.204100
     23 C3           5.0650     1.1240     1.9940 cd         1 9ZZ       0.391700
     24 I            2.9000     5.2540     0.4960 i          1 9ZZ      -0.154800
     25 I3           6.2180     2.2330     4.5700 i          1 9ZZ      -0.146800
     26 O1           6.7900    -4.5920     1.8970 oh         1 9ZZ      -0.509100
     27 O2           4.6190     4.4610     3.0210 o          1 9ZZ      -0.571100
     28 H1           4.3110    -2.4460    -1.1890 ha         1 9ZZ       0.172000
     29 H2           5.2630    -0.0140    -2.5120 ha         1 9ZZ       0.120000
     30 H3           4.0090    -0.0150    -4.6300 ha         1 9ZZ       0.117000
     31 H            3.1760     2.3890    -0.5760 ha         1 9ZZ       0.161000
     32 H4           1.5490    -0.0020    -4.6200 ha         1 9ZZ       0.118000
     33 H5           0.3120     0.0050    -2.4920 ha         1 9ZZ       0.168000
     34 HO1          6.2050    -5.0610     2.4700 ho         1 9ZZ       0.437000
     35 I1           7.2890    -2.2550     3.9810 i          1 9ZZ      -0.124900
     36 I2           5.3930    -5.3090    -0.8620 i          1 9ZZ      -0.156900
@<TRIPOS>BOND
     1    27    10 2
     2    25     9 1
     3    24    15 1
     4    10     9 1
     5    10    15 1
     6     9    23 2
     7    15    17 2
     8    23    16 1
     9    23    22 1
    10    16     2 1
    11    17    22 1
    12    35     3 1
    13    22    11 2
    14     2     3 ar
    15     2     8 ar
    16     3     5 ar
    17    11     8 1
    18    11    12 1
    19     8     7 ar
    20    13    12 ar
    21    13    14 ar
    22    12    20 ar
    23     5    26 1
    24     5     6 ar
    25    14    18 ar
    26     7     6 ar
    27     6    36 1
    28     1    21 1
    29    20    21 1
    30    20    19 ar
    31    18    19 ar
    32    21     4 1
    33     7    28 1
    34    13    29 1
    35    14    30 1
    36    17    31 1
    37    18    32 1
    38    19    33 1
    39    26    34 1
@<TRIPOS>SUBSTRUCTURE
     1 9ZZ         1 TEMP              0 ****  ****    0 ROOT
