@<TRIPOS>MOLECULE
P00
   40    41     1     0     0
SMALL
bcc


@<TRIPOS>ATOM
      1 O23          0.0000     0.0000     0.0000 o          1 P00      -0.689167
      2 P21          1.6090     0.0000     0.0000 p5         1 P00       0.942500
      3 O24          2.1460     0.0000     1.5180 o          1 P00      -0.689167
      4 O22          2.1030    -1.2080    -0.6980 o          1 P00      -0.689167
      5 O20          2.1460     1.3160    -0.7580 os         1 P00      -0.649000
      6 C19          3.5310     1.5550    -1.0160 c3         1 P00       0.164000
      7 C5           3.6880     2.8680    -1.7380 c2         1 P00      -0.001000
      8 C6           2.5830     3.6330    -2.0470 c2         1 P00      -0.075000
      9 N1           2.7070     4.7850    -2.6790 n2         1 P00      -0.059000
     10 C2           3.8800     5.2610    -3.0450 c2         1 P00      -0.159000
     11 C7           3.9560     6.5830    -3.7630 c3         1 P00      -0.045000
     12 C3           5.0460     4.5600    -2.7750 c2         1 P00       0.002000
     13 O8           6.2530     5.0560    -3.1540 oh         1 P00      -0.251000
     14 C4           4.9590     3.3320    -2.1000 c3         1 P00      -0.175000
     15 C9           6.1700     2.5500    -1.7860 c2         1 P00      -0.334000
     16 N10          7.3350     2.9960    -2.1290 n2         1 P00      -0.065000
     17 O11          8.4970     2.2460    -1.8260 os         1 P00      -0.190000
     18 C12          9.7130     2.8570    -2.2620 c3         1 P00       0.059000
     19 C13         10.8970     1.9640    -1.8860 c3         1 P00      -0.114000
     20 C14         12.1990     2.6190    -2.3530 c3         1 P00      -0.343000
     21 N16         12.2130     2.6860    -3.8200 nz         1 P00       0.849000
     22 C15         13.3710     1.8020    -1.8740 c2         1 P00       0.385000
     23 O18         13.8030     1.9250    -0.6090 o          1 P00      -0.567500
     24 O17         13.9230     1.0380    -2.6300 o          1 P00      -0.567500
     25 H3           3.9270     0.7560    -1.6310 h1         1 P00       0.059500
     26 H4           4.0720     1.5920    -0.0780 h1         1 P00       0.059500
     27 H5           1.5970     3.2820    -1.7670 h4         1 P00       0.176000
     28 H6           4.4460     7.3120    -3.1270 hc         1 P00       0.035000
     29 H7           2.9550     6.9240    -3.9980 hc         1 P00       0.035000
     30 H8           4.5220     6.4650    -4.6790 hc         1 P00       0.035000
     31 H9           6.4960     5.7630    -2.5790 ho         1 P00       0.192000
     32 H10          5.7050     2.5910    -2.7630 DU         1 P00       0.306000
     33 H11          9.6870     2.9870    -3.3370 h1         1 P00       0.010000
     34 H12          9.8230     3.8230    -1.7840 h1         1 P00       0.010000
     35 H13         10.9230     1.8340    -0.8110 hc         1 P00       0.101500
     36 H14         10.7870     0.9980    -2.3630 hc         1 P00       0.101500
     37 H15         12.2660     3.6210    -1.9450 hx         1 P00       0.123000
     38 H16         11.6650     3.4660    -4.1240 hn         1 P00       0.005667
     39 H17         11.8300     1.8410    -4.1960 hn         1 P00       0.005667
     40 H163        13.1560     2.7960    -4.1390 hn         1 P00       0.005667
@<TRIPOS>BOND
     1     1     2 1   
     2     2     3 1   
     3     2     4 1   
     4     2     5 1   
     5     5     6 1   
     6     6     7 1   
     7     6    25 1   
     8     6    26 1   
     9     7     8 1   
    10     7    14 1   
    11     8     9 1   
    12     8    27 1   
    13     9    10 1   
    14    10    11 1   
    15    10    12 1   
    16    11    28 1   
    17    11    29 1   
    18    11    30 1   
    19    12    13 1   
    20    12    14 1   
    21    13    31 1   
    22    14    15 1   
    23    14    32 1   
    24    15    16 1   
    25    15    32 1   
    26    16    17 1   
    27    17    18 1   
    28    18    19 1   
    29    18    33 1   
    30    18    34 1   
    31    19    20 1   
    32    19    35 1   
    33    19    36 1   
    34    20    21 1   
    35    20    22 1   
    36    20    37 1   
    37    21    38 1   
    38    21    39 1   
    39    21    40 1   
    40    22    23 1   
    41    22    24 1   
@<TRIPOS>SUBSTRUCTURE
     1 P00         1 TEMP              0 ****  ****    0 ROOT
