@<TRIPOS>MOLECULE
molecule
   40    40     1     0     0
SMALL
bcc


@<TRIPOS>ATOM
      1 O23          0.0000     0.0000     0.0000 o          1 P00      -0.896500
      2 P21          1.6090     0.0000     0.0000 p5         1 P00       1.157900
      3 O24          2.1460     0.0000     1.5180 o          1 P00      -0.896500
      4 O22          2.1030    -1.2080    -0.6980 o          1 P00      -0.896500
      5 O20          2.1460     1.3160    -0.7580 os         1 P00      -0.571200
      6 C19          3.5310     1.5550    -1.0160 c3         1 P00       0.241700
      7 C5           3.6880     2.8680    -1.7380 ca         1 P00      -0.117600
      8 C6           2.5830     3.6330    -2.0470 ca         1 P00       0.442200
      9 N1           2.7070     4.7850    -2.6790 nb         1 P00      -0.689000
     10 C2           3.8800     5.2610    -3.0450 ca         1 P00       0.344600
     11 C7           3.9560     6.5830    -3.7630 c3         1 P00      -0.127400
     12 C3           5.0460     4.5600    -2.7750 ca         1 P00      -0.007200
     13 O8           6.2530     5.0560    -3.1540 oh         1 P00      -0.510100
     14 C4           4.9590     3.3320    -2.1000 ca         1 P00      -0.164900
     15 C9           6.1700     2.5500    -1.7860 ce         1 P00       0.480800
     16 N10          7.3350     2.9960    -2.1290 n2         1 P00      -0.472200
     17 O11          8.4970     2.2460    -1.8260 os         1 P00      -0.210300
     18 C12          9.7130     2.8570    -2.2620 c3         1 P00       0.152400
     19 C13         10.8970     1.9640    -1.8860 c3         1 P00      -0.097400
     20 C14         12.1990     2.6190    -2.3530 c3         1 P00      -0.014500
     21 N16         12.2130     2.6860    -3.8200 nz         1 P00      -0.793600
     22 C15         13.3710     1.8020    -1.8740 c          1 P00       0.874600
     23 O18         13.8030     1.9250    -0.6090 o          1 P00      -0.785300
     24 O17         13.9230     1.0380    -2.6300 o          1 P00      -0.785300
     25 H3           3.9270     0.7560    -1.6310 h1         1 P00       0.040700
     26 H4           4.0720     1.5920    -0.0780 h1         1 P00       0.040700
     27 H5           1.5970     3.2820    -1.7670 h4         1 P00       0.091100
     28 H6           4.3070     6.4250    -4.7750 hc         1 P00       0.035700
     29 H7           4.6440     7.2380    -3.2410 hc         1 P00       0.035700
     30 H8           2.9730     7.0380    -3.7880 hc         1 P00       0.035700
     31 H9           6.3680     4.9300    -4.0810 ho         1 P00       0.398000
     32 H10          6.0840     1.6030    -1.2670 h4         1 P00       0.032800
     33 H11          9.8230     3.8230    -1.7840 h1         1 P00       0.010200
     34 H12          9.6870     2.9870    -3.3370 h1         1 P00       0.010200
     35 H13         10.7870     0.9980    -2.3630 hc         1 P00       0.096700
     36 H14         10.9230     1.8340    -0.8110 hc         1 P00       0.096700
     37 H15         12.2660     3.6210    -1.9450 hx         1 P00       0.102700
     38 H16         11.6650     3.4660    -4.1240 hn         1 P00       0.438133
     39 H17         13.1560     2.7960    -4.1390 hn         1 P00       0.438133
     40 H163        11.8300     1.8410    -4.1960 hn         1 P00       0.438133
@<TRIPOS>BOND
     1     4     2 1
     2     1     2 1
     3    23    22 1
     4     2     3 1
     5     2     5 1
     6    22    24 1
     7    22    20 1
     8     5     6 1
     9    21    20 1
    10    20    19 1
    11     6     7 1
    12    19    18 1
    13     7     8 ar
    14     7    14 ar
    15     8     9 ar
    16    15    14 1
    17    15    16 2
    18    17    18 1
    19    17    16 1
    20    14    12 ar
    21     9    10 ar
    22    12    10 ar
    23    12    13 1
    24    10    11 1
    25     6    25 1
    26     6    26 1
    27     8    27 1
    28    11    28 1
    29    11    29 1
    30    11    30 1
    31    13    31 1
    32    15    32 1
    33    18    33 1
    34    18    34 1
    35    19    35 1
    36    19    36 1
    37    20    37 1
    38    21    38 1
    39    21    39 1
    40    40    21 1
@<TRIPOS>SUBSTRUCTURE
     1 P00         1 TEMP              0 ****  ****    0 ROOT
