@<TRIPOS>MOLECULE
P01
   52    54     1     0     0
SMALL
bcc


@<TRIPOS>ATOM
      1 Cl1          0.0000     0.0000     0.0000 cl         1 P01      -0.031400
      2 C5A          1.7360     0.0000     0.0000 ca         1 P01      -0.013600
      3 C6A          2.4260     0.0000     1.1980 ca         1 P01      -0.134000
      4 C1A          3.8140     0.0050     1.1970 ca         1 P01       0.010600
      5 C2A          4.5050    -0.0000    -0.0080 ca         1 P01      -0.108000
      6 C3A          3.8110    -0.0070    -1.2020 ca         1 P01      -0.077000
      7 C4A          2.4280    -0.0070    -1.1980 ca         1 P01      -0.119000
      8 N6           4.5160     0.0120     2.4060 nu         1 P01      -0.282300
      9 C6           5.6870     0.7410     2.5230 ca         1 P01       0.621200
     10 C5           6.4670     0.6650     3.6900 ca         1 P01      -0.290200
     11 N7           6.3620    -0.0100     4.8620 nc         1 P01      -0.487100
     12 C4           7.6450     1.4260     3.7550 ca         1 P01       0.316800
     13 N9           8.1970     1.1650     4.9830 na         1 P01       0.208000
     14 C10          9.4410     1.7300     5.5120 c3         1 P01      -0.064000
     15 C11          9.1430     2.5050     6.7980 c3         1 P01      -0.011100
     16 C12         10.4270     0.6000     5.8150 c3         1 P01      -0.011100
     17 C8           7.3770     0.2820     5.6210 cd         1 P01       0.224700
     18 N3           7.9840     2.1840     2.7170 nb         1 P01      -0.746000
     19 C2           7.2190     2.2310     1.6390 ca         1 P01       0.770900
     20 N1           6.0980     1.5290     1.5360 nb         1 P01      -0.781000
     21 N21          7.6030     3.0370     0.5800 nu         1 P01      -0.471900
     22 C22          6.7770     3.1030    -0.6280 c3         1 P01       0.129500
     23 C25          7.6470     3.5050    -1.8200 c3         1 P01      -0.063700
     24 C26          8.7550     2.4690    -2.0160 c3         1 P01       0.002900
     25 C27          6.7850     3.5740    -3.0810 c3         1 P01       0.002900
     26 C23          5.6690     4.1400    -0.4320 c3         1 P01       0.193400
     27 O24          6.2500     5.4380    -0.3000 oh         1 P01      -0.598800
     28 H6A          1.8840     0.0040     2.1360 ha         1 P01       0.119000
     29 H2A          5.5890     0.0020    -0.0120 ha         1 P01       0.135000
     30 H3A          4.3490    -0.0120    -2.1420 ha         1 P01       0.105000
     31 H4A          1.8850    -0.0120    -2.1360 ha         1 P01       0.114000
     32 HN6          4.1820    -0.5250     3.1820 hn         1 P01       0.304800
     33 H10          9.8740     2.4000     4.7790 h1         1 P01       0.064700
     34 H111        10.0160     3.0800     7.0830 hc         1 P01       0.014367
     35 H112         8.8950     1.8090     7.5900 hc         1 P01       0.014367
     36 H113         8.3080     3.1740     6.6310 hc         1 P01       0.014367
     37 H121        10.4900    -0.0640     4.9610 hc         1 P01       0.014367
     38 H122        10.0850     0.0440     6.6800 hc         1 P01       0.014367
     39 H123        11.4050     1.0180     6.0200 hc         1 P01       0.014367
     40 H8           7.5450    -0.1170     6.6140 h5         1 P01       0.031800
     41 H21          8.4260     3.6030     0.6550 hn         1 P01       0.306800
     42 H22          6.3340     2.1330    -0.8160 h1         1 P01       0.062700
     43 H25          8.0910     4.4760    -1.6320 hc         1 P01       0.045700
     44 H261         9.4260     2.4910    -1.1660 hc         1 P01       0.005533
     45 H262         8.3150     1.4820    -2.1020 hc         1 P01       0.005533
     46 H263         9.3080     2.6970    -2.9190 hc         1 P01       0.005533
     47 H271         6.1820     4.4740    -3.0580 hc         1 P01       0.005533
     48 H272         6.1370     2.7070    -3.1240 hc         1 P01       0.005533
     49 H273         7.4240     3.5910    -3.9550 hc         1 P01       0.005533
     50 H231         5.0070     4.1270    -1.2900 h1         1 P01       0.003200
     51 H232         5.1070     3.9030     0.4630 h1         1 P01       0.003200
     52 H24          5.5990     6.0440     0.0110 ho         1 P01       0.391000
@<TRIPOS>BOND
     1     1     2 1   
     2     2     3 ar  
     3     2     7 ar  
     4     3     4 ar  
     5     3    28 1   
     6     4     5 ar  
     7     4     8 1   
     8     5     6 ar  
     9     5    29 1   
    10     6     7 ar  
    11     6    30 1   
    12     7    31 1   
    13     8     9 1   
    14     8    32 1   
    15     9    10 ar  
    16     9    20 ar  
    17    10    11 1   
    18    10    12 ar  
    19    11    17 2   
    20    12    13 1   
    21    12    18 ar  
    22    13    14 1   
    23    13    17 1   
    24    14    15 1   
    25    14    16 1   
    26    14    33 1   
    27    15    34 1   
    28    15    35 1   
    29    15    36 1   
    30    16    37 1   
    31    16    38 1   
    32    16    39 1   
    33    17    40 1   
    34    18    19 ar  
    35    19    20 ar  
    36    19    21 1   
    37    21    22 1   
    38    21    41 1   
    39    22    23 1   
    40    22    26 1   
    41    22    42 1   
    42    23    24 1   
    43    23    25 1   
    44    23    43 1   
    45    24    44 1   
    46    24    45 1   
    47    24    46 1   
    48    25    47 1   
    49    25    48 1   
    50    25    49 1   
    51    26    27 1   
    52    26    50 1   
    53    26    51 1   
    54    27    52 1   
@<TRIPOS>SUBSTRUCTURE
     1 P01         1 TEMP              0 ****  ****    0 ROOT
