@<TRIPOS>MOLECULE
molecule
   56    58     1     0     0
SMALL
bcc


@<TRIPOS>ATOM
      1 C1           0.0000     0.0000     0.0000 c3         1 P02      -0.109100
      2 C5           2.1590    -1.2630     2.1090 c3         1 P02       0.234100
      3 C9           1.5300     0.0000     0.0000 c3         1 P02       0.230800
      4 O12          1.6870     2.4450     1.4410 o          1 P02      -0.644800
      5 O13          2.3060     1.2010     3.5180 o          1 P02      -0.644800
      6 N14          2.0190     0.0000     1.3810 n3         1 P02      -0.825500
      7 S15          2.4130     1.4290     2.1200 s6         1 P02       1.549800
      8 C19          6.9970     5.2340    -2.4880 ca         1 P02       0.950900
      9 N20          7.1630     3.9610    -2.1650 nb         1 P02      -0.797000
     10 C21          8.2740     3.3110    -2.5160 ca         1 P02       0.598800
     11 C22          8.4590     1.8940    -2.1570 cc         1 P02      -0.225900
     12 C23          7.5280     1.0820    -1.5540 cd         1 P02       0.474800
     13 C24          6.1730     1.5450    -1.1720 ca         1 P02      -0.123500
     14 C25          5.3330     2.1140    -2.1290 ca         1 P02      -0.055000
     15 C27          4.0710     2.5430    -1.7720 ca         1 P02      -0.138000
     16 C29          3.6330     2.4120    -0.4670 ca         1 P02      -0.168000
     17 C31          4.4620     1.8460     0.4940 ca         1 P02       0.104600
     18 N32          4.0140     1.7150     1.8130 nu         1 P02      -0.772500
     19 C34          5.7310     1.4060     0.1430 ca         1 P02       0.137900
     20 F35          6.5370     0.8500     1.0750 f          1 P02      -0.129900
     21 N36          7.9580    -0.1490    -1.3450 nd         1 P02      -0.674000
     22 C37          9.1590    -0.4300    -1.7230 cc         1 P02       0.470700
     23 C38          9.8110    -1.7800    -1.5650 c3         1 P02      -0.089300
     24 C39         11.2330    -1.7270    -2.1280 c3         1 P02      -0.083433
     25 C43          9.8620    -2.1510    -0.0820 c3         1 P02      -0.083433
     26 C47          9.0000    -2.8300    -2.3260 c3         1 P02      -0.083433
     27 S51          9.9090     0.9320    -2.4320 ss         1 P02      -0.159300
     28 C52          9.2630     3.9990    -3.2330 ca         1 P02      -0.441600
     29 C54          9.0450     5.3270    -3.5460 ca         1 P02       0.506200
     30 N56          7.9140     5.9050    -3.1690 nb         1 P02      -0.804000
     31 H1          -0.3610     0.6470    -0.7900 hc         1 P02       0.042367
     32 H2          -0.3610     0.3600     0.9560 hc         1 P02       0.042367
     33 H3          -0.3610    -1.0080    -0.1660 hc         1 P02       0.042367
     34 H4           1.2670    -1.4430     2.6970 h1         1 P02       0.042367
     35 H5           2.2950    -2.0740     1.4030 h1         1 P02       0.042367
     36 H6           3.0190    -1.2080     2.7660 h1         1 P02       0.042367
     37 H7           1.8910    -0.8840    -0.5110 h1         1 P02       0.055200
     38 H8           1.8910     0.8850    -0.5110 h1         1 P02       0.055200
     39 H9           5.1830     5.4210    -1.4990 hn         1 P02       0.452800
     40 H10          5.6570     6.8160    -2.4120 hn         1 P02       0.452800
     41 H11          5.6710     2.2200    -3.1530 ha         1 P02       0.144000
     42 H12          3.4200     2.9850    -2.5170 ha         1 P02       0.139000
     43 H13          2.6410     2.7510    -0.1930 ha         1 P02       0.188000
     44 H14          4.6560     1.8290     2.5720 hn         1 P02       0.468800
     45 H15         11.8080    -0.9850    -1.5880 hc         1 P02       0.044478
     46 H16         11.7010    -2.6970    -2.0170 hc         1 P02       0.044478
     47 H17         11.1960    -1.4610    -3.1780 hc         1 P02       0.044478
     48 H18         10.4740    -3.0350     0.0490 hc         1 P02       0.044478
     49 H19          8.8590    -2.3510     0.2750 hc         1 P02       0.044478
     50 H20         10.2880    -1.3290     0.4810 hc         1 P02       0.044478
     51 H21          8.0260    -2.9400    -1.8630 hc         1 P02       0.044478
     52 H22          9.5220    -3.7780    -2.2990 hc         1 P02       0.044478
     53 H23          8.8760    -2.5140    -3.3550 hc         1 P02       0.044478
     54 H24         10.1790     3.5030    -3.5320 ha         1 P02       0.146000
     55 H25          9.7870     5.8880    -4.1010 h4         1 P02       0.029100
     56 N16          5.8320     5.8780    -2.1080 nv         1 P02      -0.988500
@<TRIPOS>BOND
     1    24    23 1
     2    25    23 1
     3    23    26 1
     4    23    22 1
     5    22    21 2
     6    22    27 1
     7    21    12 1
     8    27    11 1
     9    12    11 2
    10    12    13 1
    11     5     7 2
    12    11    10 1
    13    13    14 ar
    14    13    19 ar
    15    14    15 ar
    16    20    19 1
    17     4     7 2
    18    19    17 ar
    19    15    16 ar
    20     7    18 1
    21     7     6 1
    22    17    16 ar
    23    17    18 1
    24     9    10 ar
    25     9     8 ar
    26    10    28 ar
    27     8    56 1
    28     8    30 ar
    29    28    29 ar
    30     6     2 1
    31     6     3 1
    32    29    30 ar
    33     3     1 1
    34     1    31 1
    35     1    32 1
    36     1    33 1
    37     2    34 1
    38     2    35 1
    39     2    36 1
    40     3    37 1
    41     3    38 1
    42    56    39 1
    43    56    40 1
    44    14    41 1
    45    15    42 1
    46    16    43 1
    47    18    44 1
    48    24    45 1
    49    24    46 1
    50    24    47 1
    51    25    48 1
    52    25    49 1
    53    25    50 1
    54    26    51 1
    55    26    52 1
    56    26    53 1
    57    28    54 1
    58    29    55 1
@<TRIPOS>SUBSTRUCTURE
     1 P02         1 TEMP              0 ****  ****    0 ROOT
