@<TRIPOS>MOLECULE
P02
   56    58     1     0     0
SMALL
bcc


@<TRIPOS>ATOM
      1 C1           0.0000     0.0000     0.0000 c3         1 P02      -0.016100
      2 C5           2.1590    -1.2630     2.1090 c3         1 P02       0.282100
      3 C9           1.5300     0.0000     0.0000 c3         1 P02       0.222800
      4 O12          1.6870     2.4450     1.4410 o          1 P02      -0.584300
      5 O13          2.3060     1.2010     3.5180 o          1 P02      -0.584300
      6 N14          2.0190     0.0000     1.3810 n3         1 P02      -0.536500
      7 S15          2.4130     1.4290     2.1200 s6         1 P02       1.127800
      8 C19          6.9970     5.2340    -2.4880 ca         1 P02       0.715900
      9 N20          7.1630     3.9610    -2.1650 nb         1 P02      -0.696000
     10 C21          8.2740     3.3110    -2.5160 ca         1 P02       0.566800
     11 C22          8.4590     1.8940    -2.1570 cc         1 P02      -0.179900
     12 C23          7.5280     1.0820    -1.5540 cd         1 P02       0.429800
     13 C24          6.1730     1.5450    -1.1720 ca         1 P02      -0.117500
     14 C25          5.3330     2.1140    -2.1290 ca         1 P02      -0.048000
     15 C27          4.0710     2.5430    -1.7720 ca         1 P02      -0.099000
     16 C29          3.6330     2.4120    -0.4670 ca         1 P02      -0.168000
     17 C31          4.4620     1.8460     0.4940 ca         1 P02       0.034600
     18 N32          4.0140     1.7150     1.8130 nu         1 P02      -0.396500
     19 C34          5.7310     1.4060     0.1430 ca         1 P02       0.096900
     20 F35          6.5370     0.8500     1.0750 f          1 P02      -0.123900
     21 N36          7.9580    -0.1490    -1.3450 nd         1 P02      -0.546000
     22 C37          9.1590    -0.4300    -1.7230 cc         1 P02       0.456700
     23 C38          9.8110    -1.7800    -1.5650 c3         1 P02      -0.081300
     24 C39         11.2330    -1.7270    -2.1280 c3         1 P02       0.002900
     25 C43          9.8620    -2.1510    -0.0820 c3         1 P02       0.002900
     26 C47          9.0000    -2.8300    -2.3260 c3         1 P02       0.002900
     27 S51          9.9090     0.9320    -2.4320 ss         1 P02      -0.272300
     28 C52          9.2630     3.9990    -3.2330 ca         1 P02      -0.419600
     29 C54          9.0450     5.3270    -3.5460 ca         1 P02       0.500200
     30 N56          7.9140     5.9050    -3.1690 nb         1 P02      -0.704000
     31 H1          -0.3610     0.6470    -0.7900 hc         1 P02       0.009033
     32 H2          -0.3610     0.3600     0.9560 hc         1 P02       0.009033
     33 H3          -0.3610    -1.0080    -0.1660 hc         1 P02       0.009033
     34 H4           1.2670    -1.4430     2.6970 h1         1 P02       0.002700
     35 H5           2.2950    -2.0740     1.4030 h1         1 P02       0.002700
     36 H6           3.0190    -1.2080     2.7660 h1         1 P02       0.002700
     37 H7           1.8910    -0.8840    -0.5110 h1         1 P02       0.024200
     38 H8           1.8910     0.8850    -0.5110 h1         1 P02       0.024200
     39 H9           5.1830     5.4210    -1.4990 hn         1 P02       0.278300
     40 H10          5.6570     6.8160    -2.4120 hn         1 P02       0.278300
     41 H11          5.6710     2.2200    -3.1530 ha         1 P02       0.113000
     42 H12          3.4200     2.9850    -2.5170 ha         1 P02       0.106000
     43 H13          2.6410     2.7510    -0.1930 ha         1 P02       0.180000
     44 H14          4.6560     1.8290     2.5720 hn         1 P02       0.354800
     45 H15         11.8080    -0.9850    -1.5880 hc         1 P02       0.013144
     46 H16         11.7010    -2.6970    -2.0170 hc         1 P02       0.013144
     47 H17         11.1960    -1.4610    -3.1780 hc         1 P02       0.013144
     48 H18         10.4740    -3.0350     0.0490 hc         1 P02       0.013144
     49 H19          8.8590    -2.3510     0.2750 hc         1 P02       0.013144
     50 H20         10.2880    -1.3290     0.4810 hc         1 P02       0.013144
     51 H21          8.0260    -2.9400    -1.8630 hc         1 P02       0.013144
     52 H22          9.5220    -3.7780    -2.2990 hc         1 P02       0.013144
     53 H23          8.8760    -2.5140    -3.3550 hc         1 P02       0.013144
     54 H24         10.1790     3.5030    -3.5320 ha         1 P02       0.135000
     55 H25          9.7870     5.8880    -4.1010 h4         1 P02      -0.018900
     56 N16          5.8320     5.8780    -2.1080 nv         1 P02      -0.498500
@<TRIPOS>BOND
     1     1     3 1   
     2     1    31 1   
     3     1    32 1   
     4     1    33 1   
     5     2     6 1   
     6     2    34 1   
     7     2    35 1   
     8     2    36 1   
     9     3     6 1   
    10     3    37 1   
    11     3    38 1   
    12     4     7 2   
    13     5     7 2   
    14     6     7 1   
    15     7    18 1   
    16     8     9 ar  
    17     8    30 ar  
    18     8    56 1   
    19     9    10 ar  
    20    10    11 1   
    21    10    28 ar  
    22    11    12 2   
    23    11    27 1   
    24    12    13 1   
    25    12    21 1   
    26    13    14 ar  
    27    13    19 ar  
    28    14    15 ar  
    29    14    41 1   
    30    15    16 ar  
    31    15    42 1   
    32    16    17 ar  
    33    16    43 1   
    34    17    18 1   
    35    17    19 ar  
    36    18    44 1   
    37    19    20 1   
    38    21    22 2   
    39    22    23 1   
    40    22    27 1   
    41    23    24 1   
    42    23    25 1   
    43    23    26 1   
    44    24    45 1   
    45    24    46 1   
    46    24    47 1   
    47    25    48 1   
    48    25    49 1   
    49    25    50 1   
    50    26    51 1   
    51    26    52 1   
    52    26    53 1   
    53    28    29 ar  
    54    28    54 1   
    55    29    30 ar  
    56    29    55 1   
    57    39    56 1   
    58    40    56 1   
@<TRIPOS>SUBSTRUCTURE
     1 P02         1 TEMP              0 ****  ****    0 ROOT
