@<TRIPOS>MOLECULE
molecule
   37    36     1     0     0
SMALL
bcc


@<TRIPOS>ATOM
      1 C1           0.0000     0.0000     0.0000 c3         1 P03       0.143400
      2 O1           1.4280     0.0000     0.0000 oh         1 P03      -0.598800
      3 C2          -0.5110     0.0000     1.4430 c3         1 P03       0.143400
      4 O2          -0.1320     1.2200     2.0820 os         1 P03      -0.415600
      5 C3          -0.5620     1.3220     3.4410 c3         1 P03       0.140400
      6 O3          -0.1380     4.0210     6.0190 os         1 P03      -0.425600
      7 C4          -0.1050     2.6610     4.0210 c3         1 P03      -0.081400
      8 O4           0.0550     7.0800     9.7550 os         1 P03      -0.415600
      9 C5          -0.5650     2.7700     5.4770 c3         1 P03       0.141400
     10 O5          -0.3780     9.7610    10.6940 oh         1 P03      -0.598800
     11 C6          -0.5180     4.2250     7.3820 c3         1 P03       0.141400
     12 C7          -0.0110     5.5890     7.8550 c3         1 P03      -0.081400
     13 C8          -0.4190     5.8060     9.3130 c3         1 P03       0.140400
     14 C9          -0.2740     7.3830    11.1120 c3         1 P03       0.143400
     15 C10          0.2800     8.7630    11.4750 c3         1 P03       0.143400
     16 H1          -0.3610    -0.8840    -0.5110 h1         1 P03       0.028700
     17 H1A         -0.3610     0.8840    -0.5110 h1         1 P03       0.028700
     18 HO1          1.7430    -0.0630    -0.8870 ho         1 P03       0.400000
     19 H2          -0.0800    -0.8370     1.9780 h1         1 P03       0.031200
     20 H2A         -1.5900    -0.0880     1.4430 h1         1 P03       0.031200
     21 H3          -0.1320     0.5130     4.0180 h1         1 P03       0.020950
     22 H3A         -1.6430     1.2610     3.4830 h1         1 P03       0.020950
     23 H4           0.9760     2.7230     3.9790 hc         1 P03       0.067700
     24 H4A         -0.5350     3.4710     3.4450 hc         1 P03       0.067700
     25 H5          -1.6450     2.7080     5.5190 h1         1 P03       0.021200
     26 H5A         -0.1340     1.9610     6.0530 h1         1 P03       0.021200
     27 HO5         -0.0820    10.6150    10.9610 ho         1 P03       0.400000
     28 H6          -1.5980     4.1930     7.4630 h1         1 P03       0.021200
     29 H6A         -0.0860     3.4450     7.9970 h1         1 P03       0.021200
     30 H7          -0.4430     6.3680     7.2390 hc         1 P03       0.067700
     31 H7A          1.0690     5.6200     7.7730 hc         1 P03       0.067700
     32 H8           0.0130     5.0270     9.9290 h1         1 P03       0.020950
     33 H8A         -1.4980     5.7750     9.3940 h1         1 P03       0.020950
     34 H9          -1.3510     7.3840    11.2310 h1         1 P03       0.031200
     35 H9A          0.1610     6.6360    11.7650 h1         1 P03       0.031200
     36 H10          0.1080     8.9560    12.5270 h1         1 P03       0.028700
     37 H10A         1.3440     8.7890    11.2730 h1         1 P03       0.028700
@<TRIPOS>BOND
     1     1     2 1
     2     1     3 1
     3     3     4 1
     4     4     5 1
     5     5     7 1
     6     6     9 1
     7     6    11 1
     8     7     9 1
     9     8    13 1
    10     8    14 1
    11    10    15 1
    12    11    12 1
    13    12    13 1
    14    14    15 1
    15     1    16 1
    16     1    17 1
    17     2    18 1
    18     3    19 1
    19     3    20 1
    20     5    21 1
    21     5    22 1
    22     7    23 1
    23     7    24 1
    24     9    25 1
    25     9    26 1
    26    10    27 1
    27    11    28 1
    28    11    29 1
    29    12    30 1
    30    12    31 1
    31    13    32 1
    32    13    33 1
    33    14    34 1
    34    14    35 1
    35    15    36 1
    36    15    37 1
@<TRIPOS>SUBSTRUCTURE
     1 P03         1 TEMP              0 ****  ****    0 ROOT
