@<TRIPOS>MOLECULE
P03
   37    36     1     0     0
SMALL
bcc


@<TRIPOS>ATOM
      1 C1          0.1320    0.2800    0.0640 c3        1 P03      0.132400
      2 O1          1.5390    0.2100    0.1480 oh        1 P03     -0.599800
      3 C2         -0.5190    0.1530    1.4380 c3        1 P03      0.086400
      4 O2         -0.1450    1.3230    2.1630 os        1 P03     -0.433600
      5 C3         -0.6420    1.3140    3.4990 c3        1 P03      0.134400
      6 O3         -0.2160    3.9210    6.0980 os        1 P03     -0.418600
      7 C4         -0.1860    2.6130    4.1360 c3        1 P03     -0.088400
      8 O4          0.0990    7.0130    9.6450 os        1 P03     -0.433600
      9 C5         -0.6670    2.6740    5.5740 c3        1 P03      0.132400
     10 O5         -0.3350    9.7280   10.4000 oh        1 P03     -0.599800
     11 C6         -0.5960    4.1000    7.4600 c3        1 P03      0.132400
     12 C7         -0.0650    5.4600    7.8780 c3        1 P03     -0.088400
     13 C8         -0.4170    5.7210    9.3300 c3        1 P03      0.134400
     14 C9         -0.1510    7.3800   11.0000 c3        1 P03      0.086400
     15 C10         0.3990    8.7940   11.1620 c3        1 P03      0.132400
     16 H1         -0.1680   -0.5890   -0.5800 h1        1 P03      0.053700
     17 H1A        -0.1800    1.2440   -0.4200 h1        1 P03      0.053700
     18 HO1         1.8210    0.9150    0.7460 ho        1 P03      0.414000
     19 H2         -1.6350    0.1040    1.3440 h1        1 P03      0.038200
     20 H2A        -0.1450   -0.7600    1.9720 h1        1 P03      0.038200
     21 H3         -0.2280    0.4260    4.0480 h1        1 P03      0.027200
     22 H3A        -1.7620    1.2430    3.4830 h1        1 P03      0.027200
     23 H4         -0.5900    3.4860    3.5610 hc        1 P03      0.070200
     24 H4A         0.9320    2.6850    4.1040 hc        1 P03      0.070200
     25 H5         -0.2380    1.8310    6.1800 h1        1 P03      0.025700
     26 H5A        -1.7880    2.6260    5.6280 h1        1 P03      0.025700
     27 HO5        -0.2990    9.4320    9.4820 ho        1 P03      0.414000
     28 H6         -1.7140    4.0590    7.5490 h1        1 P03      0.025700
     29 H6A        -0.1490    3.2820    8.0870 h1        1 P03      0.025700
     30 H7         -0.5050    6.2580    7.2260 hc        1 P03      0.070200
     31 H7A         1.0460    5.4950    7.7400 hc        1 P03      0.070200
     32 H8         -1.5290    5.7130    9.4850 h1        1 P03      0.027200
     33 H8A         0.0510    4.9550   10.0040 h1        1 P03      0.027200
     34 H9          0.3740    6.6700   11.6900 h1        1 P03      0.038200
     35 H9A        -1.2540    7.3580   11.2020 h1        1 P03      0.038200
     36 H10         0.2810    9.1270   12.2280 h1        1 P03      0.053700
     37 H10A        1.4820    8.8200   10.8680 h1        1 P03      0.053700
@<TRIPOS>BOND
     1    1    2 1   
     2    1    3 1   
     3    1   16 1   
     4    1   17 1   
     5    2   18 1   
     6    3    4 1   
     7    3   19 1   
     8    3   20 1   
     9    4    5 1   
    10    5    7 1   
    11    5   21 1   
    12    5   22 1   
    13    6    9 1   
    14    6   11 1   
    15    7    9 1   
    16    7   23 1   
    17    7   24 1   
    18    8   13 1   
    19    8   14 1   
    20    9   25 1   
    21    9   26 1   
    22   10   15 1   
    23   10   27 1   
    24   11   12 1   
    25   11   28 1   
    26   11   29 1   
    27   12   13 1   
    28   12   30 1   
    29   12   31 1   
    30   13   32 1   
    31   13   33 1   
    32   14   15 1   
    33   14   34 1   
    34   14   35 1   
    35   15   36 1   
    36   15   37 1   
@<TRIPOS>SUBSTRUCTURE
     1 P03         1 TEMP              0 ****  ****    0 ROOT
