@<TRIPOS>MOLECULE
P04
   48    52     1     0     0
SMALL
bcc


@<TRIPOS>ATOM
      1 N01        -0.1760   -0.2680   -0.0410 nc        1 P04     -0.573100
      2 C02         1.1730   -0.1600   -0.0430 cd        1 P04      0.394500
      3 C03         1.7010    0.2110    1.2540 cd        1 P04     -0.285800
      4 C04         0.5580    0.3160    2.0830 cc        1 P04      0.434500
      5 N05        -0.5690    0.0010    1.2200 na        1 P04     -0.172600
      6 N06         0.3940    0.6380    3.4030 nc        1 P04     -0.755000
      7 C07        -0.8880    0.7600    3.8390 cd        1 P04      0.915900
      8 N08        -2.0450    0.4840    3.0670 nd        1 P04     -0.827000
      9 C09        -1.8750    0.1410    1.7690 cc        1 P04      0.845400
     10 N10        -2.9700   -0.0330    0.9160 nh        1 P04     -0.809900
     11 C11        -4.2810   -0.1990    1.4520 cx        1 P04      0.160500
     12 C12        -5.3980   -0.7260    0.5740 cx        1 P04     -0.144400
     13 C13        -4.8990   -1.5620    1.7150 cx        1 P04     -0.144400
     14 N17        -1.1340    1.2420    5.1440 nh        1 P04     -0.700300
     15 C18        -0.1220    1.2040    6.1350 ca        1 P04      0.154600
     16 C19         1.1600    1.7200    5.8790 ca        1 P04     -0.143000
     17 C20         2.2030    1.5330    6.8090 ca        1 P04      0.083600
     18 C21         1.9030    0.9910    8.0770 ca        1 P04     -0.187000
     19 C22         0.6020    0.5950    8.3650 ca        1 P04     -0.090000
     20 C23        -0.4060    0.6640    7.4100 ca        1 P04     -0.195000
     21 N27         3.5410    1.8090    6.4660 n         1 P04     -0.481100
     22 C28         3.9240    2.4570    5.2810 c         1 P04      0.668100
     23 O29         3.3310    3.4710    4.8810 o         1 P04     -0.556100
     24 C30         5.1220    1.8890    4.5330 c3        1 P04     -0.154400
     25 C31         4.7710    1.5710    3.0880 c3        1 P04     -0.069400
     26 C32         3.3570    1.0530    2.9270 c3        1 P04     -0.090400
     27 C33         3.1180    0.4470    1.5580 c3        1 P04      0.017800
     28 H02         1.7550   -0.3400   -0.9500 h4        1 P04      0.052800
     29 HN10       -2.7960   -0.4850    0.0420 hn        1 P04      0.449800
     30 H11        -4.5260    0.6200    2.1670 h1        1 P04      0.119700
     31 H12        -5.1810   -1.0510   -0.4600 hc        1 P04      0.080200
     32 H12A       -6.3830   -0.2320    0.6480 hc        1 P04      0.080200
     33 H13        -4.3270   -2.4790    1.4900 hc        1 P04      0.080200
     34 H13A       -5.5250   -1.6800    2.6170 hc        1 P04      0.080200
     35 HN17       -2.0620    1.0940    5.4840 hn        1 P04      0.441800
     36 H19         1.3710    2.2550    4.9350 ha        1 P04      0.183000
     37 H21         2.6890    0.8740    8.8370 ha        1 P04      0.135000
     38 H22         0.3700    0.1950    9.3650 ha        1 P04      0.133000
     39 H23        -1.4120    0.2940    7.6540 ha        1 P04      0.132000
     40 HN27        4.2040    1.1840    6.8680 hn        1 P04      0.308500
     41 H30         5.9360    2.6610    4.5610 hc        1 P04      0.061700
     42 H30A        5.5130    0.9640    5.0310 hc        1 P04      0.061700
     43 H31         4.8890    2.5000    2.4690 hc        1 P04      0.048200
     44 H31A        5.5060    0.8160    2.7040 hc        1 P04      0.048200
     45 H32         3.1380    0.2860    3.7160 hc        1 P04      0.063700
     46 H32A        2.6500    1.9130    3.0840 hc        1 P04      0.063700
     47 H33         3.6800   -0.5250    1.4800 hc        1 P04      0.041700
     48 H33A        3.5420    1.1330    0.7720 hc        1 P04      0.041700
@<TRIPOS>BOND
     1    1    2 2   
     2    1    5 1   
     3    2    3 1   
     4    2   28 1   
     5    3    4 2   
     6    3   27 1   
     7    4    5 1   
     8    4    6 1   
     9    5    9 1   
    10    6    7 2   
    11    7    8 1   
    12    7   14 1   
    13    8    9 2   
    14    9   10 1   
    15   10   11 1   
    16   10   29 1   
    17   11   12 1   
    18   11   13 1   
    19   11   30 1   
    20   12   13 1   
    21   12   31 1   
    22   12   32 1   
    23   13   33 1   
    24   13   34 1   
    25   14   15 1   
    26   14   35 1   
    27   15   16 ar  
    28   15   20 ar  
    29   16   17 ar  
    30   16   36 1   
    31   17   18 ar  
    32   17   21 1   
    33   18   19 ar  
    34   18   37 1   
    35   19   20 ar  
    36   19   38 1   
    37   20   39 1   
    38   21   22 1   
    39   21   40 1   
    40   22   23 2   
    41   22   24 1   
    42   24   25 1   
    43   24   41 1   
    44   24   42 1   
    45   25   26 1   
    46   25   43 1   
    47   25   44 1   
    48   26   27 1   
    49   26   45 1   
    50   26   46 1   
    51   27   47 1   
    52   27   48 1   
@<TRIPOS>SUBSTRUCTURE
     1 P04         1 TEMP              0 ****  ****    0 ROOT
