@<TRIPOS>MOLECULE
molecule
   55    58     1     0     0
SMALL
bcc


@<TRIPOS>ATOM
      1 C1           0.0000     0.0000     0.0000 ca         1 P06       0.949900
      2 C2           2.0020     0.0000     1.1490 ca         1 P06       0.600800
      3 N3           1.3240     0.0000     0.0000 nb         1 P06      -0.795000
      4 C4           1.2910     0.0020     2.3570 ca         1 P06      -0.439600
      5 N6          -0.6960     0.0060     1.1280 nb         1 P06      -0.806000
      6 C7          -0.0900     0.0070     2.3060 ca         1 P06       0.506200
      7 N9          -0.6740    -0.0000    -1.2090 nv         1 P06      -0.991500
      8 C12          3.4760    -0.0010     1.1480 cc         1 P06      -0.228900
      9 S13          4.5170     0.1370     2.5630 ss         1 P06      -0.161300
     10 C14          5.9050     0.0390     1.5710 cc         1 P06       0.473700
     11 N15          5.5750    -0.0830     0.3300 nd         1 P06      -0.673000
     12 C16          4.2870    -0.1160     0.0440 cd         1 P06       0.477800
     13 C17          7.3230     0.0870     2.0780 c3         1 P06      -0.090300
     14 C18          7.3150     0.2360     3.6010 c3         1 P06      -0.084100
     15 C22          8.0460    -1.2060     1.6960 c3         1 P06      -0.084100
     16 C26          8.0470     1.2800     1.4530 c3         1 P06      -0.084100
     17 C30          3.7650    -0.2580    -1.3360 ca         1 P06      -0.124500
     18 C31          3.6170     0.5320    -3.6040 ca         1 P06       0.090600
     19 C32          4.1110     0.6730    -2.3140 ca         1 P06       0.140900
     20 C33          2.7830    -0.5340    -3.9160 ca         1 P06      -0.150000
     21 C35          2.9300    -1.3280    -1.6600 ca         1 P06      -0.057000
     22 C37          2.4460    -1.4600    -2.9460 ca         1 P06      -0.135000
     23 F39          4.9230     1.7080    -2.0080 f          1 P06      -0.130900
     24 N40          3.9600     1.4630    -4.5900 nu         1 P06      -0.755500
     25 S42          2.8540     1.8920    -5.7440 sy         1 P06       1.429200
     26 C43          1.4680     2.5860    -4.9060 ca         1 P06      -0.399500
     27 C44          0.3320     4.4890    -3.9930 ca         1 P06      -0.206000
     28 C46          1.4220     3.9450    -4.6510 ca         1 P06       0.258400
     29 C47         -0.7100     3.6750    -3.5910 ca         1 P06      -0.021000
     30 C49          0.4220     1.7720    -4.5080 ca         1 P06       0.258400
     31 C50         -0.6680     2.3180    -3.8490 ca         1 P06      -0.206000
     32 F52          0.4620     0.4460    -4.7610 f          1 P06      -0.107400
     33 F53          2.4400     4.7410    -5.0440 f          1 P06      -0.107400
     34 O54          3.4410     2.9490    -6.4910 o          1 P06      -0.616800
     35 O55          2.4010     0.6830    -6.3360 o          1 P06      -0.616800
     36 H1           1.8110     0.0020     3.3070 ha         1 P06       0.147000
     37 H2          -0.6710     0.0100     3.2200 h4         1 P06       0.030100
     38 H3          -1.6750     0.0070    -1.2240 hn         1 P06       0.450800
     39 H4          -0.1610    -0.0450    -2.0670 hn         1 P06       0.450800
     40 H5           6.8000    -0.6080     4.0440 hc         1 P06       0.044922
     41 H6           8.3350     0.2690     3.9660 hc         1 P06       0.044922
     42 H7           6.8050     1.1530     3.8720 hc         1 P06       0.044922
     43 H8           9.0410    -1.2030     2.1240 hc         1 P06       0.044922
     44 H9           8.1180    -1.2750     0.6170 hc         1 P06       0.044922
     45 H10          7.4920    -2.0560     2.0760 hc         1 P06       0.044922
     46 H11          9.0350     1.3720     1.8890 hc         1 P06       0.044922
     47 H12          8.1370     1.1290     0.3840 hc         1 P06       0.044922
     48 H13          7.4830     2.1850     1.6430 hc         1 P06       0.044922
     49 H14          2.3990    -0.6430    -4.9230 ha         1 P06       0.193000
     50 H15          2.6630    -2.0560    -0.9040 ha         1 P06       0.142000
     51 H16          1.7960    -2.2900    -3.1960 ha         1 P06       0.140000
     52 H17          4.8650     1.8890    -4.5820 hn         1 P06       0.474800
     53 H18          0.2960     5.5530    -3.7910 ha         1 P06       0.153500
     54 H19         -1.5620     4.1010    -3.0750 ha         1 P06       0.148000
     55 H20         -1.4860     1.6810    -3.5350 ha         1 P06       0.153500
@<TRIPOS>BOND
     1    29    31 ar
     2    29    27 ar
     3    31    30 ar
     4    27    28 ar
     5    30    32 1
     6    30    26 ar
     7    28    26 ar
     8    28    33 1
     9    26    25 1
    10     6     5 ar
    11     6     4 ar
    12     5     1 ar
    13     4     2 ar
    14    25    35 2
    15    25    24 1
    16    25    34 2
    17    20    22 ar
    18    20    18 ar
    19     1     7 1
    20     1     3 ar
    21    24    18 1
    22    22    21 ar
    23    18    19 ar
    24     2     3 ar
    25     2     8 1
    26    21    17 ar
    27    19    17 ar
    28    19    23 1
    29    17    12 1
    30     8    12 2
    31     8     9 1
    32    12    11 1
    33     9    10 1
    34    11    10 2
    35    10    13 1
    36    13    16 1
    37    13    14 1
    38    13    15 1
    39     4    36 1
    40     6    37 1
    41     7    38 1
    42     7    39 1
    43    14    40 1
    44    14    41 1
    45    14    42 1
    46    15    43 1
    47    15    44 1
    48    15    45 1
    49    16    46 1
    50    16    47 1
    51    16    48 1
    52    20    49 1
    53    21    50 1
    54    22    51 1
    55    24    52 1
    56    27    53 1
    57    29    54 1
    58    31    55 1
@<TRIPOS>SUBSTRUCTURE
     1 P06         1 TEMP              0 ****  ****    0 ROOT
