@<TRIPOS>MOLECULE
P08
   51    54     1     0     0
SMALL
bcc


@<TRIPOS>ATOM
      1 CAN          0.0000     0.0000     0.0000 c3         1 P08       0.137800
      2 CAL          1.5340     0.0000     0.0000 c3         1 P08       0.195400
      3 OAQ          2.0050     0.0000     1.3500 os         1 P08      -0.400600
      4 CAM          1.6290    -1.1580     2.1000 c3         1 P08       0.195400
      5 CAO          0.1020    -1.2180     2.2080 c3         1 P08       0.137800
      6 NBA         -0.4640    -1.1050     0.8550 nh         1 P08      -0.372400
      7 CAU         -1.3950    -2.0030     0.4020 cc         1 P08       0.276100
      8 CAJ         -2.2640    -2.5520     1.2970 cd         1 P08      -0.445200
      9 CAW         -3.2290    -3.4770     0.8510 c          1 P08       0.661900
     10 OAC         -4.0220    -3.9880     1.6250 o          1 P08      -0.599100
     11 OAR         -1.4210    -2.3020    -0.9030 os         1 P08      -0.199200
     12 CAY         -2.3080    -3.1750    -1.4270 ca         1 P08       0.169100
     13 CAX         -3.2430    -3.8030    -0.5890 ca         1 P08      -0.223600
     14 CAK         -4.1620    -4.7060    -1.1190 ca         1 P08      -0.006000
     15 CAS         -4.1430    -4.9830    -2.4680 ca         1 P08      -0.122300
     16 CAA         -5.1340    -5.9600    -3.0480 c3         1 P08       0.067200
     17 CAI         -3.2160    -4.3680    -3.2950 ca         1 P08      -0.056000
     18 CAV         -2.3090    -3.4630    -2.7850 ca         1 P08      -0.132300
     19 CAZ         -1.3110    -2.7980    -3.6980 c3         1 P08       0.201800
     20 CAB         -1.8830    -1.4700    -4.1980 c3         1 P08      -0.022100
     21 NAP         -1.0360    -3.6730    -4.8400 nu         1 P08      -0.441600
     22 CAT          0.1810    -3.5740    -5.5190 ca         1 P08       0.072600
     23 CAG          0.4430    -4.4020    -6.6030 ca         1 P08      -0.192500
     24 CAE          1.6470    -4.3020    -7.2710 ca         1 P08      -0.048500
     25 CAD          2.5910    -3.3780    -6.8630 ca         1 P08      -0.164000
     26 CAF          2.3340    -2.5520    -5.7840 ca         1 P08      -0.048500
     27 CAH          1.1290    -2.6430    -5.1150 ca         1 P08      -0.192500
     28 HAN1        -0.3640     0.9410     0.3940 h1         1 P08       0.036700
     29 HAN2        -0.3640    -0.1440    -1.0100 h1         1 P08       0.036700
     30 HAL1         1.8940     0.8860    -0.5080 h1         1 P08       0.017700
     31 HAL2         1.8940    -0.8860    -0.5080 h1         1 P08       0.017700
     32 HAM1         1.9900    -2.0460     1.5960 h1         1 P08       0.017700
     33 HAM2         2.0590    -1.0990     3.0930 h1         1 P08       0.017700
     34 HAO1        -0.1950    -2.1620     2.6490 h1         1 P08       0.036700
     35 HAO2        -0.2520    -0.3960     2.8200 h1         1 P08       0.036700
     36 HAJ         -2.2950    -2.1860     2.3160 ha         1 P08       0.153000
     37 HAK         -4.9630    -5.0910    -0.4980 ha         1 P08       0.131000
     38 HAA1        -5.6250    -5.5110    -3.9030 hc         1 P08       0.009367
     39 HAA2        -5.8740    -6.2120    -2.2980 hc         1 P08       0.009367
     40 HAA3        -4.6160    -6.8580    -3.3600 hc         1 P08       0.009367
     41 HAI         -3.2100    -4.5940    -4.3550 ha         1 P08       0.113000
     42 HAZ         -0.3920    -2.6130    -3.1550 h1         1 P08       0.048700
     43 HAB1        -2.6830    -1.1510    -3.5410 hc         1 P08       0.013367
     44 HAB2        -2.2690    -1.5980    -5.2020 hc         1 P08       0.013367
     45 HAB3        -1.1010    -0.7200    -4.2050 hc         1 P08       0.013367
     46 HAP         -1.7270    -4.3300    -5.1440 hn         1 P08       0.302800
     47 HAG         -0.2960    -5.1260    -6.9230 ha         1 P08       0.110000
     48 HAH          0.9280    -1.9960    -4.2700 ha         1 P08       0.110000
     49 HAE          1.8510    -4.9480    -8.1170 ha         1 P08       0.097000
     50 HAD          3.5360    -3.3030    -7.3880 ha         1 P08       0.103000
     51 HAF          3.0740    -1.8270    -5.4680 ha         1 P08       0.097000
@<TRIPOS>BOND
     1     1     2 1   
     2     1     6 1   
     3     1    28 1   
     4     1    29 1   
     5     2     3 1   
     6     2    30 1   
     7     2    31 1   
     8     3     4 1   
     9     4     5 1   
    10     4    32 1   
    11     4    33 1   
    12     5     6 1   
    13     5    34 1   
    14     5    35 1   
    15     6     7 1   
    16     7     8 2   
    17     7    11 1   
    18     8     9 1   
    19     8    36 1   
    20     9    10 2   
    21     9    13 1   
    22    11    12 1   
    23    12    13 ar  
    24    12    18 ar  
    25    13    14 ar  
    26    14    15 ar  
    27    14    37 1   
    28    15    16 1   
    29    15    17 ar  
    30    16    38 1   
    31    16    39 1   
    32    16    40 1   
    33    17    18 ar  
    34    17    41 1   
    35    18    19 1   
    36    19    20 1   
    37    19    21 1   
    38    19    42 1   
    39    20    43 1   
    40    20    44 1   
    41    20    45 1   
    42    21    22 1   
    43    21    46 1   
    44    22    23 ar  
    45    22    27 ar  
    46    23    24 ar  
    47    23    47 1   
    48    24    25 ar  
    49    24    49 1   
    50    25    26 ar  
    51    25    50 1   
    52    26    27 ar  
    53    26    51 1   
    54    27    48 1   
@<TRIPOS>SUBSTRUCTURE
     1 P08         1 TEMP              0 ****  ****    0 ROOT
