@<TRIPOS>MOLECULE
molecule
   45    47     1     0     0
SMALL
bcc


@<TRIPOS>ATOM
      1 CAA          0.0000     0.0000     0.0000 c3         1 P09      -0.037800
      2 CAB          0.0680     0.0020     2.8870 c3         1 P09      -0.043800
      3 OAC         14.0110     2.4010     1.2240 o          1 P09      -0.819300
      4 OAD         10.1700     2.2170     0.1630 o          1 P09      -0.511100
      5 OAE         11.8750     1.8280     1.4130 o          1 P09      -0.819300
      6 CAF         14.0870     0.3800    -2.4980 ca         1 P09      -0.151000
      7 CAG         12.9010    -0.0350    -3.0760 ca         1 P09      -0.160000
      8 CAH         14.0840     1.0020    -1.2630 ca         1 P09      -0.098000
      9 CAI         11.6970     0.1750    -2.4290 ca         1 P09      -0.134000
     10 CAJ          2.5020     0.0000     0.0000 ca         1 P09      -0.090000
     11 CAK          7.6780     1.1790     0.6650 ca         1 P09      -0.151500
     12 CAL          7.9730    -1.1650     1.1120 ca         1 P09      -0.151500
     13 CAM          3.7170     0.0000     0.6580 ca         1 P09      -0.208000
     14 CAN          6.5150     1.1750     1.4090 ca         1 P09      -0.122500
     15 CAO          6.8130    -1.1680     1.8590 ca         1 P09      -0.122500
     16 CAP          2.5670     0.0010     2.7680 ca         1 P09      -0.158000
     17 OAR          4.9450     0.0010     2.6970 os         1 P09      -0.246200
     18 CAT         10.3960     1.0890    -0.2290 c          1 P09       0.721700
     19 CAU          1.3230     0.0010     0.7220 ca         1 P09      -0.130300
     20 CAV          1.3560     0.0010     2.1040 ca         1 P09      -0.055300
     21 CAW          8.4090     0.0090     0.5120 ca         1 P09       0.083600
     22 CAX          6.0790     0.0010     2.0080 ca         1 P09       0.053100
     23 CAY          3.7520     0.0010     2.0460 ca         1 P09       0.149100
     24 CAZ         12.8800     1.2220    -0.5980 ca         1 P09      -0.076600
     25 CBA         11.6730     0.8050    -1.1900 ca         1 P09      -0.155600
     26 HAA         -0.5610    -0.8840     0.2760 hc         1 P09       0.036033
     27 HAAA         0.1720    -0.0000    -1.0700 hc         1 P09       0.036033
     28 HAAB        -0.5620     0.8850     0.2750 hc         1 P09       0.036033
     29 HAB          0.2900     0.0020     3.9470 hc         1 P09       0.040033
     30 HABA        -0.5060    -0.8830     2.6390 hc         1 P09       0.040033
     31 HABB        -0.5060     0.8860     2.6380 hc         1 P09       0.040033
     32 HAF         15.0250     0.2100    -3.0120 ha         1 P09       0.107000
     33 HAG         12.9150    -0.5240    -4.0430 ha         1 P09       0.105000
     34 HAH         15.0170     1.3240    -0.8160 ha         1 P09       0.158000
     35 HAI         10.7710    -0.1530    -2.8880 ha         1 P09       0.106000
     36 HAJ          2.4740    -0.0010    -1.0830 ha         1 P09       0.128000
     37 HAK          8.0180     2.0950     0.1970 ha         1 P09       0.153000
     38 HAL          8.5440    -2.0780     0.9950 ha         1 P09       0.153000
     39 HAM          4.6400    -0.0000     0.0920 ha         1 P09       0.152000
     40 HAN          5.9430     2.0870     1.5260 ha         1 P09       0.136000
     41 HAO          6.4730    -2.0840     2.3270 ha         1 P09       0.136000
     42 HAP          2.5920     0.0020     3.8510 ha         1 P09       0.141000
     43 HNAQ         9.8960    -0.8400    -0.6700 hn         1 P09       0.326500
     44 NAQ          9.5860     0.0130    -0.2480 ns         1 P09      -0.478100
     45 CAS         12.8710     1.8870     0.7220 c          1 P09       0.879200
@<TRIPOS>BOND
     1     1    19 1
     2     1    26 1
     3     1    27 1
     4     1    28 1
     5    20     2 1
     6     2    29 1
     7     2    30 1
     8     2    31 1
     9    45     3 1
    10    18     4 2
    11     5    45 1
    12     7     6 ar
    13     8     6 ar
    14     6    32 1
    15     9     7 ar
    16     7    33 1
    17    24     8 ar
    18     8    34 1
    19    25     9 ar
    20     9    35 1
    21    10    13 ar
    22    10    19 ar
    23    10    36 1
    24    14    11 ar
    25    21    11 ar
    26    11    37 1
    27    15    12 ar
    28    12    21 ar
    29    12    38 1
    30    13    23 ar
    31    13    39 1
    32    22    14 ar
    33    14    40 1
    34    15    22 ar
    35    15    41 1
    36    23    16 ar
    37    20    16 ar
    38    16    42 1
    39    21    44 1
    40    44    18 1
    41    44    43 1
    42    23    17 1
    43    17    22 1
    44    45    24 1
    45    18    25 1
    46    19    20 ar
    47    25    24 ar
@<TRIPOS>SUBSTRUCTURE
     1 P09         1 TEMP              0 ****  ****    0 ROOT
