@<TRIPOS>MOLECULE
molecule
   35    37     1     0     0
SMALL
bcc


@<TRIPOS>ATOM
      1 C14          0.0000     0.0000     0.0000 cc         1 P0C      -0.256000
      2 C16          0.7240     0.0010     2.1350 cd         1 P0C      -0.034600
      3 C17          0.7830     0.0010     3.6410 c3         1 P0C      -0.032800
      4 O01         -1.8250     1.2100    -6.3570 oh         1 P0C      -0.578800
      5 C02         -0.5350     0.7810    -5.9120 c3         1 P0C       0.098100
      6 C03         -0.4800    -0.7570    -5.8250 c3         1 P0C       0.130100
      7 C04          0.6090    -1.2920    -6.7570 c3         1 P0C       0.141400
      8 O05          0.5770    -2.7210    -6.7580 oh         1 P0C      -0.596800
      9 O06         -0.1680    -1.0970    -4.4640 os         1 P0C      -0.371600
     10 C07         -0.6410    -0.0110    -3.6390 c3         1 P0C       0.294500
     11 C08         -0.2770     1.2520    -4.4610 c3         1 P0C       0.091100
     12 O09         -1.1320     2.3460    -4.1210 oh         1 P0C      -0.583800
     13 N10          0.0480    -0.0050    -2.3460 n          1 P0C      -0.327000
     14 C11          1.3930     0.0010    -2.3090 c          1 P0C       0.836900
     15 N12          2.0640    -0.0010    -1.1610 nc         1 P0C      -0.434400
     16 C13          1.4210     0.0000     0.0000 cd         1 P0C       0.171700
     17 C15         -0.4030     0.0010     1.4110 cc         1 P0C      -0.189000
     18 N18          1.8190     0.0000     1.3040 na         1 P0C      -0.217100
     19 C19         -0.6720    -0.0060    -1.2020 cd         1 P0C       0.093600
     20 O20          2.0150     0.0000    -3.3590 o          1 P0C      -0.641500
     21 H1           1.5850     0.6510     3.9710 hc         1 P0C       0.055700
     22 H2          -0.1590     0.3590     4.0390 hc         1 P0C       0.055700
     23 H3           0.9660    -1.0060     3.9950 hc         1 P0C       0.055700
     24 H5           0.2410     1.1490    -6.5720 h1         1 P0C       0.052700
     25 H6          -1.4420    -1.1750    -6.0960 h1         1 P0C       0.079700
     26 H7           1.5780    -0.9530    -6.4120 h1         1 P0C       0.034700
     27 H8           0.4350    -0.9270    -7.7620 h1         1 P0C       0.034700
     28 H9           1.1540    -3.0480    -7.4270 ho         1 P0C       0.403000
     29 H10         -1.7140    -0.0780    -3.5050 h2         1 P0C       0.087700
     30 H11          0.7660     1.5110    -4.3230 h1         1 P0C       0.095700
     31 H12         -0.6160     3.1280    -4.0180 ho         1 P0C       0.407000
     32 H14         -1.2530    -0.5890     1.7330 ha         1 P0C       0.159000
     33 H15          2.7710    -0.0000     1.6120 hn         1 P0C       0.309700
     34 H16         -1.7340     0.2060    -1.2300 h4         1 P0C       0.171000
     35 H4          -1.7370     1.6800    -7.1690 ho         1 P0C       0.404000
@<TRIPOS>BOND
     1    20    14 2
     2    14    15 1
     3    14    13 1
     4    15    16 2
     5    12    11 1
     6    11    10 1
     7    11     5 1
     8    16    18 1
     9    16     1 1
    10    13    10 1
    11    13    19 1
    12    10     9 1
    13    18     2 1
    14     9     6 1
    15    19     1 2
    16     1    17 1
    17     5     4 1
    18     5     6 1
    19     2    17 2
    20     2     3 1
    21     6     7 1
    22     7     8 1
    23     3    21 1
    24     3    22 1
    25     3    23 1
    26     4    35 1
    27     5    24 1
    28     6    25 1
    29     7    26 1
    30     7    27 1
    31     8    28 1
    32    10    29 1
    33    11    30 1
    34    12    31 1
    35    17    32 1
    36    18    33 1
    37    19    34 1
@<TRIPOS>SUBSTRUCTURE
     1 P0C         1 TEMP              0 ****  ****    0 ROOT
