@<TRIPOS>MOLECULE
molecule
   39    39     1     0     0
SMALL
bcc


@<TRIPOS>ATOM
      1 O2           0.0000     0.0000     0.0000 o          1 P0D      -0.845800
      2 C            1.3420     0.0000     0.0000 c          1 P0D       0.905600
      3 O1           1.9470    -0.0000    -1.0470 o          1 P0D      -0.845800
      4 C2'          2.0950     0.0000     1.3050 c3         1 P0D      -0.136700
      5 C1'          3.3230    -0.9060     1.1860 c3         1 P0D      -0.251600
      6 P1           2.7990    -2.6510     1.2510 p5         1 P0D       1.177100
      7 O1P          1.8070    -2.9080     0.1830 o          1 P0D      -0.721300
      8 C2           5.2730    -3.4640     2.1120 c3         1 P0D      -0.090100
      9 C1           4.2480    -3.7300     1.0080 c3         1 P0D      -0.084700
     10 N1           4.8530    -3.4500    -0.3000 nz         1 P0D      -0.779600
     11 O2P          2.1350    -2.9580     2.6850 os         1 P0D      -0.617800
     12 P2           1.4900    -4.2700     3.3610 p5         1 P0D       1.162900
     13 O4P          2.6640    -5.2260     3.9050 o          1 P0D      -0.876500
     14 O3P          0.5440    -3.8310     4.5880 o          1 P0D      -0.876500
     15 O5P          0.6870    -4.9980     2.3540 o          1 P0D      -0.876500
     16 C3'          2.5440     1.4250     1.6350 c3         1 P0D      -0.014100
     17 C31          1.3330     2.2900     1.8700 ca         1 P0D      -0.039300
     18 C33          0.8200     3.0550     0.8390 ca         1 P0D      -0.100500
     19 C35         -0.2910     3.8490     1.0550 ca         1 P0D      -0.137000
     20 C36         -0.8880     3.8780     2.3020 ca         1 P0D      -0.153000
     21 C34         -0.3750     3.1140     3.3320 ca         1 P0D      -0.137000
     22 C32          0.7330     2.3160     3.1150 ca         1 P0D      -0.100500
     23 H2           1.4510    -0.3670     2.0940 hc         1 P0D       0.095700
     24 H3           3.8230    -0.7140     0.2440 hc         1 P0D       0.033200
     25 H4           4.0030    -0.7020     2.0040 hc         1 P0D       0.033200
     26 H8           3.9360    -4.7670     1.0470 hx         1 P0D       0.168700
     27 H9           5.3080    -2.5580    -0.2740 hn         1 P0D       0.436133
     28 H10          5.5240    -4.1600    -0.5170 hn         1 P0D       0.436133
     29 H14          3.1180     1.8240     0.8070 hc         1 P0D       0.021700
     30 H15          3.1580     1.4130     2.5270 hc         1 P0D       0.021700
     31 H16          1.2880     3.0320    -0.1370 ha         1 P0D       0.135000
     32 H17         -0.6930     4.4490     0.2470 ha         1 P0D       0.106500
     33 H18         -1.7580     4.5020     2.4710 ha         1 P0D       0.097000
     34 H19         -0.8450     3.1350     4.3080 ha         1 P0D       0.106500
     35 H20          1.1350     1.7170     3.9230 ha         1 P0D       0.135000
     36 H5           5.5720    -4.4040     2.5610 hc         1 P0D       0.059033
     37 H6           6.1410    -2.9740     1.6880 hc         1 P0D       0.059033
     38 H13          4.1410    -3.4440    -1.0040 hn         1 P0D       0.436133
     39 H7           4.8320    -2.8270     2.8690 hc         1 P0D       0.059033
@<TRIPOS>BOND
     1     7     6 2
     2     8     9 1
     3    10     9 1
     4     9     6 1
     5     3     2 1
     6     6    11 1
     7     6     5 1
     8     1     2 1
     9     2     4 1
    10    11    12 1
    11    15    12 1
    12     5     4 1
    13     4    16 1
    14    12    14 1
    15    12    13 1
    16    16    17 1
    17    18    17 ar
    18    18    19 ar
    19    17    22 ar
    20    19    20 ar
    21    22    21 ar
    22    20    21 ar
    23     4    23 1
    24     5    24 1
    25     5    25 1
    26     8    36 1
    27     8    37 1
    28     8    39 1
    29     9    26 1
    30    10    27 1
    31    10    28 1
    32    16    29 1
    33    16    30 1
    34    18    31 1
    35    19    32 1
    36    20    33 1
    37    21    34 1
    38    22    35 1
    39    38    10 1
@<TRIPOS>SUBSTRUCTURE
     1 P0D         1 TEMP              0 ****  ****    0 ROOT
