@<TRIPOS>MOLECULE
P0E
  121   120     1     0     0
SMALL
bcc


@<TRIPOS>ATOM
      1 O1         -1.0930   -0.7960    1.0530 os        1 P0E     -0.444900
      2 C2          0.3130   -1.1310    1.0920 c3        1 P0E      0.122100
      3 C3          0.6830   -1.2250    2.5700 c3        1 P0E      0.128400
      4 C4          0.4670   -2.4860    0.3890 c3        1 P0E      0.159400
      5 O5          1.0620    0.0830    3.0280 os        1 P0E     -0.439900
      6 O6          1.7030   -3.0480    0.7000 os        1 P0E     -0.570200
      7 O7          0.6460   -5.0450   -0.4170 o         1 P0E     -0.825000
      8 P8          1.9710   -4.4700   -0.1060 p5        1 P0E      1.431800
      9 O9          3.0980   -5.1360    0.5680 o         1 P0E     -0.825000
     10 O10         2.5260   -3.8020   -1.5090 os        1 P0E     -0.586200
     11 C11        -1.5670   -0.1260   -0.0360 c         1 P0E      0.639100
     12 O12        -0.7820    0.4750   -0.7730 o         1 P0E     -0.552000
     13 C13         0.3120    0.6970    3.9830 c         1 P0E      0.635100
     14 O14        -0.6230    0.0980    4.5190 o         1 P0E     -0.552000
     15 C15        -3.0620   -0.1790   -0.1640 c3        1 P0E     -0.127400
     16 C16        -3.6110   -1.5760    0.0420 c3        1 P0E     -0.074400
     17 C17        -3.0250   -2.5710   -0.9370 c3        1 P0E     -0.087400
     18 C18        -3.4750   -3.9830   -0.6310 c3        1 P0E     -0.067400
     19 C19        -2.6550   -4.9940   -1.4060 c3        1 P0E     -0.105400
     20 C20        -3.1710   -6.3980   -1.1750 c3        1 P0E     -0.063400
     21 C21        -2.4140   -7.4330   -1.9860 c3        1 P0E     -0.045200
     22 C22        -1.0600   -7.7020   -1.4460 c2        1 P0E     -0.160200
     23 C23        -0.4660   -8.9000   -1.4600 c2        1 P0E     -0.213200
     24 C24         0.7840    2.0970    4.2490 c3        1 P0E     -0.131400
     25 C25         0.5740    2.4790    5.6980 c3        1 P0E     -0.078400
     26 C26         0.9150    3.9360    5.9260 c3        1 P0E     -0.078400
     27 C27         0.7230    4.3200    7.3780 c3        1 P0E     -0.078400
     28 C28         1.0540    5.7790    7.6070 c3        1 P0E     -0.079400
     29 C29         0.8610    6.1640    9.0590 c3        1 P0E     -0.077400
     30 C30         1.1910    7.6250    9.2850 c3        1 P0E     -0.050200
     31 C31         1.0090    8.0310   10.6980 c2        1 P0E     -0.168200
     32 C32         1.2100    9.2750   11.1460 c2        1 P0E     -0.180200
     33 C33         1.6380   10.4000   10.2810 c3        1 P0E     -0.048200
     34 C34        -1.0730  -10.1410   -1.9980 c3        1 P0E     -0.039200
     35 C35         1.8030   11.6910   11.0560 c3        1 P0E     -0.076400
     36 C36         2.2410   12.8210   10.1500 c3        1 P0E     -0.079400
     37 C37         2.4050   14.1120   10.9210 c3        1 P0E     -0.078400
     38 C38         2.8440   15.2420   10.0150 c3        1 P0E     -0.079400
     39 C39         3.0060   16.5350   10.7860 c3        1 P0E     -0.079400
     40 C40         3.4460   17.6650    9.8810 c3        1 P0E     -0.080400
     41 C41         3.6080   18.9540   10.6440 c3        1 P0E     -0.092100
     42 C42        -0.1500  -11.3400   -1.9110 c3        1 P0E     -0.072400
     43 C43         0.0150  -11.8280   -0.4880 c3        1 P0E     -0.081400
     44 C44         0.9630  -13.0060   -0.4160 c3        1 P0E     -0.078400
     45 C45         1.1250  -13.4970    1.0070 c3        1 P0E     -0.081400
     46 C46         2.0680  -14.6690    1.0850 c3        1 P0E     -0.090100
     47 C47         3.8830   -3.4860   -1.5740 c3        1 P0E      0.142400
     48 C48         4.5070   -4.2070   -2.7700 c3        1 P0E      0.116400
     49 O49         3.8100   -3.9380   -3.9720 oh        1 P0E     -0.630800
     50 H2          0.9180   -0.3370    0.5800 h1        1 P0E      0.089700
     51 H31A        1.6130   -1.8490    2.6740 h1        1 P0E      0.098200
     52 H32A       -0.1590   -1.6460    3.1750 h1        1 P0E      0.098200
     53 H41         0.3960   -2.3400   -0.7250 h1        1 P0E      0.045200
     54 H42        -0.3510   -3.1890    0.7130 h1        1 P0E      0.045200
     55 H151       -3.3300    0.2010   -1.1840 hc        1 P0E      0.065700
     56 H152       -3.4990    0.5160    0.6010 hc        1 P0E      0.065700
     57 H161       -3.3790   -1.9070    1.0900 hc        1 P0E      0.048200
     58 H162       -4.7270   -1.5460   -0.0670 hc        1 P0E      0.048200
     59 H171       -1.9010   -2.5240   -0.8810 hc        1 P0E      0.049200
     60 H172       -3.3180   -2.2960   -1.9840 hc        1 P0E      0.049200
     61 H181       -3.3630   -4.1860    0.4670 hc        1 P0E      0.027700
     62 H182       -4.5630   -4.0940   -0.8800 hc        1 P0E      0.027700
     63 H191       -2.6970   -4.7520   -2.5000 hc        1 P0E      0.075700
     64 H192       -1.5720   -4.9310   -1.0880 hc        1 P0E      0.075700
     65 H201       -4.2580   -6.4470   -1.4530 hc        1 P0E      0.026200
     66 H202       -3.0940   -6.6480   -0.0850 hc        1 P0E      0.026200
     67 H211       -3.0210   -8.3790   -2.0190 hc        1 P0E      0.031200
     68 H212       -2.3090   -7.0730   -3.0460 hc        1 P0E      0.031200
     69 H22        -0.5280   -6.8170   -1.0290 ha        1 P0E      0.205000
     70 H23         0.5530   -9.0040   -1.0520 ha        1 P0E      0.126000
     71 H241        0.2000    2.7790    3.5740 hc        1 P0E      0.075200
     72 H242        1.8670    2.1870    3.9690 hc        1 P0E      0.075200
     73 H251       -0.4940    2.2830    5.9840 hc        1 P0E      0.056200
     74 H252        1.2140    1.8320    6.3530 hc        1 P0E      0.056200
     75 H261        1.9790    4.1260    5.6240 hc        1 P0E      0.039200
     76 H262        0.2660    4.5810    5.2770 hc        1 P0E      0.039200
     77 H271       -0.3400    4.1230    7.6810 hc        1 P0E      0.042200
     78 H272        1.3760    3.6790    8.0260 hc        1 P0E      0.042200
     79 H281        2.1160    5.9750    7.3040 hc        1 P0E      0.039200
     80 H282        0.4010    6.4200    6.9580 hc        1 P0E      0.039200
     81 H291       -0.2000    5.9660    9.3630 hc        1 P0E      0.041700
     82 H292        1.5160    5.5250    9.7080 hc        1 P0E      0.041700
     83 H301        0.5400    8.2630    8.6260 hc        1 P0E      0.047700
     84 H302        2.2540    7.8230    8.9740 hc        1 P0E      0.047700
     85 H31         0.6900    7.2360   11.3920 ha        1 P0E      0.122000
     86 H32         1.0590    9.5150   12.2110 ha        1 P0E      0.119000
     87 H331        0.8830   10.5490    9.4610 hc        1 P0E      0.047700
     88 H332        2.6100   10.1360    9.7790 hc        1 P0E      0.047700
     89 H341       -1.3530   -9.9790   -3.0750 hc        1 P0E      0.033700
     90 H342       -2.0260  -10.3670   -1.4460 hc        1 P0E      0.033700
     91 H351        2.5610   11.5460   11.8710 hc        1 P0E      0.040200
     92 H352        0.8330   11.9590   11.5510 hc        1 P0E      0.040200
     93 H361        1.4840   12.9630    9.3340 hc        1 P0E      0.040200
     94 H362        3.2120   12.5520    9.6560 hc        1 P0E      0.040200
     95 H371        3.1620   13.9690   11.7380 hc        1 P0E      0.038700
     96 H372        1.4340   14.3810   11.4150 hc        1 P0E      0.038700
     97 H381        3.8160   14.9730    9.5230 hc        1 P0E      0.039700
     98 H382        2.0880   15.3840    9.1980 hc        1 P0E      0.039700
     99 H391        2.0340   16.8040   11.2780 hc        1 P0E      0.038700
    100 H392        3.7620   16.3930   11.6040 hc        1 P0E      0.038700
    101 H401        4.4180   17.3940    9.3900 hc        1 P0E      0.038700
    102 H402        2.6910   17.8040    9.0630 hc        1 P0E      0.038700
    103 H411        2.6430   19.2550   11.1200 hc        1 P0E      0.031700
    104 H412        4.3750   18.8430   11.4490 hc        1 P0E      0.031700
    105 H413        3.9330   19.7740    9.9590 hc        1 P0E      0.031700
    106 H421       -0.5670  -12.1710   -2.5410 hc        1 P0E      0.032700
    107 H422        0.8530  -11.0730   -2.3350 hc        1 P0E      0.032700
    108 H431        0.4030  -10.9910    0.1500 hc        1 P0E      0.044700
    109 H432       -0.9840  -12.1240   -0.0730 hc        1 P0E      0.044700
    110 H441        1.9640  -12.7080   -0.8250 hc        1 P0E      0.035200
    111 H442        0.5780  -13.8410   -1.0600 hc        1 P0E      0.035200
    112 H451        0.1220  -13.7920    1.4160 hc        1 P0E      0.039700
    113 H452        1.5090  -12.6600    1.6480 hc        1 P0E      0.039700
    114 H461        1.6910  -15.5220    0.4710 hc        1 P0E      0.028033
    115 H462        3.0800  -14.3860    0.7060 hc        1 P0E      0.028033
    116 H463        2.1730  -15.0150    2.1420 hc        1 P0E      0.028033
    117 H471        4.4090   -3.7870   -0.6260 h1        1 P0E      0.042700
    118 H472        3.9800   -2.3740   -1.7310 h1        1 P0E      0.042700
    119 H481        5.5540   -3.8450   -2.9440 h1        1 P0E      0.030200
    120 H482        4.5180   -5.3160   -2.5930 h1        1 P0E      0.030200
    121 H49         2.8680   -3.9470   -3.7520 ho        1 P0E      0.425000
@<TRIPOS>BOND
     1    1    2 1   
     2    1   11 1   
     3    2    3 1   
     4    2    4 1   
     5    2   50 1   
     6    3    5 1   
     7    3   51 1   
     8    3   52 1   
     9    4    6 1   
    10    4   53 1   
    11    4   54 1   
    12    5   13 1   
    13    6    8 1   
    14    7    8 1   
    15    8    9 1   
    16    8   10 1   
    17   10   47 1   
    18   11   12 2   
    19   11   15 1   
    20   13   14 2   
    21   13   24 1   
    22   15   16 1   
    23   15   55 1   
    24   15   56 1   
    25   16   17 1   
    26   16   57 1   
    27   16   58 1   
    28   17   18 1   
    29   17   59 1   
    30   17   60 1   
    31   18   19 1   
    32   18   61 1   
    33   18   62 1   
    34   19   20 1   
    35   19   63 1   
    36   19   64 1   
    37   20   21 1   
    38   20   65 1   
    39   20   66 1   
    40   21   22 1   
    41   21   67 1   
    42   21   68 1   
    43   22   23 2   
    44   22   69 1   
    45   23   34 1   
    46   23   70 1   
    47   24   25 1   
    48   24   71 1   
    49   24   72 1   
    50   25   26 1   
    51   25   73 1   
    52   25   74 1   
    53   26   27 1   
    54   26   75 1   
    55   26   76 1   
    56   27   28 1   
    57   27   77 1   
    58   27   78 1   
    59   28   29 1   
    60   28   79 1   
    61   28   80 1   
    62   29   30 1   
    63   29   81 1   
    64   29   82 1   
    65   30   31 1   
    66   30   83 1   
    67   30   84 1   
    68   31   32 2   
    69   31   85 1   
    70   32   33 1   
    71   32   86 1   
    72   33   35 1   
    73   33   87 1   
    74   33   88 1   
    75   34   42 1   
    76   34   89 1   
    77   34   90 1   
    78   35   36 1   
    79   35   91 1   
    80   35   92 1   
    81   36   37 1   
    82   36   93 1   
    83   36   94 1   
    84   37   38 1   
    85   37   95 1   
    86   37   96 1   
    87   38   39 1   
    88   38   97 1   
    89   38   98 1   
    90   39   40 1   
    91   39   99 1   
    92   39  100 1   
    93   40   41 1   
    94   40  101 1   
    95   40  102 1   
    96   41  103 1   
    97   41  104 1   
    98   41  105 1   
    99   42   43 1   
   100   42  106 1   
   101   42  107 1   
   102   43   44 1   
   103   43  108 1   
   104   43  109 1   
   105   44   45 1   
   106   44  110 1   
   107   44  111 1   
   108   45   46 1   
   109   45  112 1   
   110   45  113 1   
   111   46  114 1   
   112   46  115 1   
   113   46  116 1   
   114   47   48 1   
   115   47  117 1   
   116   47  118 1   
   117   48   49 1   
   118   48  119 1   
   119   48  120 1   
   120   49  121 1   
@<TRIPOS>SUBSTRUCTURE
     1 P0E         1 TEMP              0 ****  ****    0 ROOT
