@<TRIPOS>MOLECULE
molecule
  121   120     1     0     0
SMALL
bcc


@<TRIPOS>ATOM
      1 O1           0.0000     0.0000     0.0000 os         1 P0E      -0.396900
      2 C2           1.4290     0.0000     0.0000 c3         1 P0E       0.145100
      3 C3           1.8990     0.0000     1.4490 c3         1 P0E       0.136400
      4 C4           1.9180    -1.2380    -0.7440 c3         1 P0E       0.135400
      5 O5           1.4370     1.1940     2.0860 os         1 P0E      -0.420900
      6 O6           1.4200    -2.4110    -0.1080 os         1 P0E      -0.550200
      7 O7           1.3720    -4.0580    -2.1530 o          1 P0E      -0.781000
      8 P8           1.8170    -3.8470    -0.7350 p5         1 P0E       1.272800
      9 O9           1.1760    -4.8920     0.3220 o          1 P0E      -0.781000
     10 O10          3.4140    -3.9780    -0.5010 os         1 P0E      -0.562200
     11 C11         -0.5880     0.0230    -1.2310 c          1 P0E       0.648100
     12 O12         -0.0050     0.0420    -2.3080 o          1 P0E      -0.536000
     13 C13          1.7850     1.3340     3.3980 c          1 P0E       0.638100
     14 O14          2.4440     0.5420     4.0600 o          1 P0E      -0.531000
     15 C15         -2.0900     0.0280    -1.0920 c3         1 P0E      -0.133400
     16 C16         -2.6220    -1.2300    -0.4100 c3         1 P0E      -0.073400
     17 C17         -2.3180    -2.5000    -1.2110 c3         1 P0E      -0.081400
     18 C18         -2.8860    -3.7420    -0.5200 c3         1 P0E      -0.069400
     19 C19         -2.5440    -5.0120    -1.3020 c3         1 P0E      -0.080400
     20 C20         -3.0770    -6.2640    -0.5940 c3         1 P0E      -0.080400
     21 C21         -2.7790    -7.5570    -1.3670 c3         1 P0E       0.124800
     22 C22         -1.3360    -7.9010    -1.6340 c2         1 P0E      -0.127200
     23 C23         -0.5390    -8.6690    -0.8750 c2         1 P0E      -0.342200
     24 C24          1.2330     2.6280     3.9430 c3         1 P0E      -0.139400
     25 C25          1.6310     2.8560     5.3990 c3         1 P0E      -0.072400
     26 C26          1.0180     4.1350     5.9750 c3         1 P0E      -0.076400
     27 C27          1.4070     4.3910     7.4340 c3         1 P0E      -0.076400
     28 C28          0.8680     5.6890     8.0460 c3         1 P0E      -0.080400
     29 C29          1.3330     5.9190     9.4880 c3         1 P0E      -0.104400
     30 C30          0.7890     7.2150    10.0980 c3         1 P0E       0.073800
     31 C31          1.3090     7.4790    11.4830 c2         1 P0E      -0.239200
     32 C32          2.0560     8.5450    11.8050 c2         1 P0E      -0.235200
     33 C33          2.4650     9.6050    10.8240 c3         1 P0E       0.112800
     34 C34         -0.9670    -9.3330     0.4010 c3         1 P0E      -0.062200
     35 C35          1.9960    11.0120    11.2140 c3         1 P0E      -0.108400
     36 C36          2.4310    12.0940    10.2200 c3         1 P0E      -0.079400
     37 C37          1.9120    13.4720    10.6390 c3         1 P0E      -0.074400
     38 C38          2.2410    14.5800     9.6330 c3         1 P0E      -0.079400
     39 C39          1.6740    15.9660     9.9530 c3         1 P0E      -0.076400
     40 C40          1.9820    17.0130     8.8830 c3         1 P0E      -0.080400
     41 C41          1.4750    18.3890     9.2900 c3         1 P0E      -0.089100
     42 C42         -1.5060   -10.7540     0.1940 c3         1 P0E      -0.086400
     43 C43         -0.5160   -11.7720    -0.3900 c3         1 P0E      -0.070400
     44 C44         -1.1380   -13.1450    -0.6600 c3         1 P0E      -0.077400
     45 C45         -0.1640   -14.1270    -1.3140 c3         1 P0E      -0.082400
     46 C46         -0.7960   -15.4670    -1.6560 c3         1 P0E      -0.088100
     47 C47          3.9590    -3.8010     0.7950 c3         1 P0E       0.210400
     48 C48          5.4630    -3.9770     0.7280 c3         1 P0E       0.133400
     49 O49          6.0030    -3.0200    -0.1770 oh         1 P0E      -0.598800
     50 H2           1.7920     0.8900    -0.4990 h1         1 P0E       0.048700
     51 H31A         2.9820    -0.0320     1.4790 h1         1 P0E       0.073700
     52 H32A         1.4960    -0.8650     1.9610 h1         1 P0E       0.073700
     53 H41          1.5640    -1.2060    -1.7680 h1         1 P0E       0.055200
     54 H42          3.0010    -1.2570    -0.7390 h1         1 P0E       0.055200
     55 H151        -2.3850     0.8920    -0.5090 hc         1 P0E       0.057700
     56 H152        -2.5320     0.1040    -2.0780 hc         1 P0E       0.057700
     57 H161        -3.6950    -1.1390    -0.2930 hc         1 P0E       0.044700
     58 H162        -2.1670    -1.3170     0.5690 hc         1 P0E       0.044700
     59 H171        -1.2450    -2.6090    -1.3090 hc         1 P0E       0.059200
     60 H172        -2.7580    -2.4110    -2.1970 hc         1 P0E       0.059200
     61 H181        -2.4680    -3.8160     0.4770 hc         1 P0E       0.029700
     62 H182        -3.9620    -3.6480    -0.4480 hc         1 P0E       0.029700
     63 H191        -1.4680    -5.0900    -1.3980 hc         1 P0E       0.073200
     64 H192        -2.9850    -4.9490    -2.2890 hc         1 P0E       0.073200
     65 H201        -4.1490    -6.1680    -0.4750 hc         1 P0E       0.040700
     66 H202        -2.6210    -6.3310     0.3860 hc         1 P0E       0.040700
     67 H211        -3.2840    -7.4920    -2.3240 hc         1 P0E       0.011700
     68 H212        -3.2170    -8.3790    -0.8140 hc         1 P0E       0.011700
     69 H22         -2.1190    -8.6290    -1.4610 ha         1 P0E       0.016000
     70 H23         -0.8420    -8.1390     0.0200 ha         1 P0E       0.247000
     71 H241         1.6070     3.4500     3.3430 hc         1 P0E       0.069200
     72 H242         0.1520     2.6060     3.8740 hc         1 P0E       0.069200
     73 H251         1.3000     2.0110     5.9900 hc         1 P0E       0.054200
     74 H252         2.7110     2.9260     5.4610 hc         1 P0E       0.054200
     75 H261         1.3440     4.9770     5.3760 hc         1 P0E       0.035700
     76 H262        -0.0610     4.0610     5.9120 hc         1 P0E       0.035700
     77 H271         2.4890     4.4120     7.4960 hc         1 P0E       0.040700
     78 H272         1.0480     3.5610     8.0300 hc         1 P0E       0.040700
     79 H281        -0.2150     5.6560     8.0320 hc         1 P0E       0.033700
     80 H282         1.1990     6.5230     7.4380 hc         1 P0E       0.033700
     81 H291         1.0050     5.0840    10.0960 hc         1 P0E       0.051700
     82 H292         2.4160     5.9550     9.5030 hc         1 P0E       0.051700
     83 H301        -0.2920     7.1540    10.1380 hc         1 P0E       0.041200
     84 H302         1.0680     8.0440     9.4590 hc         1 P0E       0.041200
     85 H31          0.5720     8.0930    10.9780 ha         1 P0E       0.082000
     86 H32          2.7250     8.3800    10.9690 ha         1 P0E       0.054000
     87 H331         2.0500     9.3580     9.8540 hc         1 P0E       0.038700
     88 H332         3.5460     9.6090    10.7480 hc         1 P0E       0.038700
     89 H341        -1.7420    -8.7320     0.8620 hc         1 P0E       0.054200
     90 H342        -0.1170    -9.3780     1.0710 hc         1 P0E       0.054200
     91 H351         0.9150    11.0120    11.2760 hc         1 P0E       0.051200
     92 H352         2.4010    11.2540    12.1900 hc         1 P0E       0.051200
     93 H361         2.0420    11.8510     9.2390 hc         1 P0E       0.038200
     94 H362         3.5130    12.1210    10.1760 hc         1 P0E       0.038200
     95 H371         2.3500    13.7320    11.5950 hc         1 P0E       0.039200
     96 H372         0.8360    13.4170    10.7530 hc         1 P0E       0.039200
     97 H381         1.8640    14.2780     8.6630 hc         1 P0E       0.035700
     98 H382         3.3190    14.6650     9.5650 hc         1 P0E       0.035700
     99 H391         2.0900    16.3010    10.8950 hc         1 P0E       0.037700
    100 H392         0.5990    15.8840    10.0580 hc         1 P0E       0.037700
    101 H401         1.5060    16.7210     7.9550 hc         1 P0E       0.038700
    102 H402         3.0530    17.0610     8.7330 hc         1 P0E       0.038700
    103 H411         1.6920    19.1010     8.5020 hc         1 P0E       0.033033
    104 H412         1.9690    18.7000    10.2030 hc         1 P0E       0.033033
    105 H413         0.4050    18.3460     9.4540 hc         1 P0E       0.033033
    106 H421        -2.3600   -10.6970    -0.4690 hc         1 P0E       0.019200
    107 H422        -1.8460   -11.1280     1.1530 hc         1 P0E       0.019200
    108 H431        -0.1260   -11.3800    -1.3210 hc         1 P0E       0.049200
    109 H432         0.3050   -11.8950     0.3060 hc         1 P0E       0.049200
    110 H441        -1.4760   -13.5640     0.2800 hc         1 P0E       0.030200
    111 H442        -1.9940   -13.0170    -1.3120 hc         1 P0E       0.030200
    112 H451         0.6650   -14.2970    -0.6370 hc         1 P0E       0.039700
    113 H452         0.2180   -13.6810    -2.2250 hc         1 P0E       0.039700
    114 H461        -0.0510   -16.1160    -2.0990 hc         1 P0E       0.028367
    115 H462        -1.1830   -15.9240    -0.7530 hc         1 P0E       0.028367
    116 H463        -1.6060   -15.3150    -2.3590 hc         1 P0E       0.028367
    117 H471         3.5380    -4.5360     1.4700 h1         1 P0E       0.032700
    118 H472         3.7260    -2.8050     1.1530 h1         1 P0E       0.032700
    119 H481         5.6960    -4.9760     0.3810 h1         1 P0E       0.013700
    120 H482         5.8900    -3.8260     1.7120 h1         1 P0E       0.013700
    121 H49          6.9430    -3.0950    -0.1890 ho         1 P0E       0.378000
@<TRIPOS>BOND
     1     1     2 1
     2     1    11 1
     3     2     3 1
     4     2     4 1
     5     2    50 1
     6     3     5 1
     7     3    51 1
     8     3    52 1
     9     4     6 1
    10     4    53 1
    11     4    54 1
    12     5    13 1
    13     6     8 1
    14     7     8 1
    15     8     9 1
    16     8    10 1
    17    10    47 1
    18    11    12 2
    19    11    15 1
    20    13    14 2
    21    13    24 1
    22    15    16 1
    23    15    55 1
    24    15    56 1
    25    16    17 1
    26    16    57 1
    27    16    58 1
    28    17    18 1
    29    17    59 1
    30    17    60 1
    31    18    19 1
    32    18    61 1
    33    18    62 1
    34    19    20 1
    35    19    63 1
    36    19    64 1
    37    20    21 1
    38    20    65 1
    39    20    66 1
    40    21    22 1
    41    21    67 1
    42    21    68 1
    43    22    23 2
    44    22    69 1
    45    23    34 1
    46    23    70 1
    47    24    25 1
    48    24    71 1
    49    24    72 1
    50    25    26 1
    51    25    73 1
    52    25    74 1
    53    26    27 1
    54    26    75 1
    55    26    76 1
    56    27    28 1
    57    27    77 1
    58    27    78 1
    59    28    29 1
    60    28    79 1
    61    28    80 1
    62    29    30 1
    63    29    81 1
    64    29    82 1
    65    30    31 1
    66    30    83 1
    67    30    84 1
    68    31    32 2
    69    31    85 1
    70    32    33 1
    71    32    86 1
    72    33    35 1
    73    33    87 1
    74    33    88 1
    75    34    42 1
    76    34    89 1
    77    34    90 1
    78    35    36 1
    79    35    91 1
    80    35    92 1
    81    36    37 1
    82    36    93 1
    83    36    94 1
    84    37    38 1
    85    37    95 1
    86    37    96 1
    87    38    39 1
    88    38    97 1
    89    38    98 1
    90    39    40 1
    91    39    99 1
    92    39   100 1
    93    40    41 1
    94    40   101 1
    95    40   102 1
    96    41   103 1
    97    41   104 1
    98    41   105 1
    99    42    43 1
   100    42   106 1
   101    42   107 1
   102    43    44 1
   103    43   108 1
   104    43   109 1
   105    44    45 1
   106    44   110 1
   107    44   111 1
   108    45    46 1
   109    45   112 1
   110    45   113 1
   111    46   114 1
   112    46   115 1
   113    46   116 1
   114    47    48 1
   115    47   117 1
   116    47   118 1
   117    48    49 1
   118    48   119 1
   119    48   120 1
   120    49   121 1
@<TRIPOS>SUBSTRUCTURE
     1 P0E         1 TEMP              0 ****  ****    0 ROOT
