@<TRIPOS>MOLECULE
P0F
   34    36     1     0     0
SMALL
bcc


@<TRIPOS>ATOM
      1 Cl           0.0000     0.0000     0.0000 cl         1 P0F       0.002600
      2 CAR          1.7360     0.0000     0.0000 ca         1 P0F      -0.001600
      3 CAH          2.4280     0.0000     1.1980 ca         1 P0F      -0.110000
      4 CAE          3.8100     0.0000     1.1990 ca         1 P0F      -0.051000
      5 CAG          4.5030    -0.0010     0.0030 ca         1 P0F      -0.131000
      6 CAQ          3.8120    -0.0000    -1.1970 ca         1 P0F       0.136900
      7 F            4.4890    -0.0010    -2.3670 f          1 P0F      -0.120900
      8 CAV          2.4280    -0.0060    -1.1980 ca         1 P0F      -0.151300
      9 CAK          1.6740    -0.0120    -2.5040 c3         1 P0F       0.220100
     10 NAN          1.4300     1.3680    -2.9330 nu         1 P0F      -0.501900
     11 CAU          0.7500     1.6140    -4.1130 cc         1 P0F       0.327400
     12 NAM          0.2470     0.6780    -4.9680 na         1 P0F       0.052300
     13 NAO          0.4630     2.7940    -4.6150 nd         1 P0F      -0.401000
     14 NAL         -0.1760     2.6590    -5.7210 nd         1 P0F      -0.279000
     15 CAT         -0.3390     1.3850    -5.9920 cc         1 P0F       0.197000
     16 CAS         -1.0250     0.8190    -7.1720 ca         1 P0F      -0.071500
     17 CAJ         -1.5760     1.6640    -8.1350 ca         1 P0F      -0.112000
     18 CAP         -2.2180     1.1270    -9.2380 ca         1 P0F       0.131100
     19 OAA         -2.7550     1.9480   -10.1780 oh         1 P0F      -0.499100
     20 CAF         -2.3110    -0.2500    -9.3830 ca         1 P0F      -0.140000
     21 CAD         -1.7670    -1.0900    -8.4300 ca         1 P0F      -0.074000
     22 CAI         -1.1210    -0.5650    -7.3300 ca         1 P0F      -0.139000
     23 H1           1.8860     0.0010     2.1360 ha         1 P0F       0.122000
     24 H2           4.3510     0.0000     2.1380 ha         1 P0F       0.113000
     25 H3           5.5860    -0.0000     0.0040 ha         1 P0F       0.126000
     26 H4           0.7280    -0.5220    -2.3720 h1         1 P0F       0.019700
     27 H5           2.2600    -0.5260    -3.2560 h1         1 P0F       0.019700
     28 H6           1.7750     2.1310    -2.3850 hn         1 P0F       0.319800
     29 H7           0.2970    -0.3170    -4.8720 hn         1 P0F       0.140700
     30 H8          -1.4310     2.7360    -8.0610 ha         1 P0F       0.141000
     31 H9          -3.6310     2.1860    -9.9240 ho         1 P0F       0.405000
     32 H10         -2.8160    -0.6690   -10.2460 ha         1 P0F       0.114000
     33 H11         -1.8420    -2.1640    -8.5500 ha         1 P0F       0.103000
     34 H12         -0.6950    -1.2260    -6.5850 ha         1 P0F       0.093000
@<TRIPOS>BOND
     1     1     2 1   
     2     2     3 ar  
     3     2     8 ar  
     4     3     4 ar  
     5     3    23 1   
     6     4     5 ar  
     7     4    24 1   
     8     5     6 ar  
     9     5    25 1   
    10     6     7 1   
    11     6     8 ar  
    12     8     9 1   
    13     9    10 1   
    14     9    26 1   
    15     9    27 1   
    16    10    11 1   
    17    10    28 1   
    18    11    12 1   
    19    11    13 2   
    20    12    15 1   
    21    12    29 1   
    22    13    14 1   
    23    14    15 2   
    24    15    16 1   
    25    16    17 ar  
    26    16    22 ar  
    27    17    18 ar  
    28    17    30 1   
    29    18    19 1   
    30    18    20 ar  
    31    19    31 1   
    32    20    21 ar  
    33    20    32 1   
    34    21    22 ar  
    35    21    33 1   
    36    22    34 1   
@<TRIPOS>SUBSTRUCTURE
     1 P0F         1 TEMP              0 ****  ****    0 ROOT
