@<TRIPOS>MOLECULE
molecule
   34    36     1     0     0
SMALL
bcc


@<TRIPOS>ATOM
      1 Cl           0.0000     0.0000     0.0000 cl         1 P0F      -0.082400
      2 CAR          1.7360     0.0000     0.0000 ca         1 P0F       0.066400
      3 CAH          2.4280     0.0000     1.1980 ca         1 P0F      -0.139000
      4 CAE          3.8100     0.0000     1.1990 ca         1 P0F      -0.082000
      5 CAG          4.5030    -0.0010     0.0030 ca         1 P0F      -0.168000
      6 CAQ          3.8120    -0.0000    -1.1970 ca         1 P0F       0.162900
      7 F            4.4890    -0.0010    -2.3670 f          1 P0F      -0.126900
      8 CAV          2.4280    -0.0060    -1.1980 ca         1 P0F      -0.154300
      9 CAK          1.6740    -0.0120    -2.5040 c3         1 P0F       0.285100
     10 NAN          1.4300     1.3680    -2.9330 nu         1 P0F      -0.912900
     11 CAU          0.7500     1.6140    -4.1130 cc         1 P0F       0.649400
     12 NAM          0.2470     0.6780    -4.9680 na         1 P0F      -0.467700
     13 NAO          0.4630     2.7940    -4.6150 nd         1 P0F      -0.413000
     14 NAL         -0.1760     2.6590    -5.7210 nd         1 P0F      -0.316000
     15 CAT         -0.3390     1.3850    -5.9920 cc         1 P0F       0.389000
     16 CAS         -1.0250     0.8190    -7.1720 ca         1 P0F      -0.087500
     17 CAJ         -1.5760     1.6640    -8.1350 ca         1 P0F      -0.121000
     18 CAP         -2.2180     1.1270    -9.2380 ca         1 P0F       0.109100
     19 OAA         -2.7550     1.9480   -10.1780 oh         1 P0F      -0.519100
     20 CAF         -2.3110    -0.2500    -9.3830 ca         1 P0F      -0.149000
     21 CAD         -1.7670    -1.0900    -8.4300 ca         1 P0F      -0.112000
     22 CAI         -1.1210    -0.5650    -7.3300 ca         1 P0F      -0.141000
     23 H1           1.8860     0.0010     2.1360 ha         1 P0F       0.154000
     24 H2           4.3510     0.0000     2.1380 ha         1 P0F       0.148000
     25 H3           5.5860    -0.0000     0.0040 ha         1 P0F       0.155000
     26 H4           0.7280    -0.5220    -2.3720 h1         1 P0F       0.051700
     27 H5           2.2600    -0.5260    -3.2560 h1         1 P0F       0.051700
     28 H6           1.7750     2.1310    -2.3850 hn         1 P0F       0.476800
     29 H7           0.2970    -0.3170    -4.8720 hn         1 P0F       0.304700
     30 H8          -1.4310     2.7360    -8.0610 ha         1 P0F       0.169000
     31 H9          -3.6310     2.1860    -9.9240 ho         1 P0F       0.422000
     32 H10         -2.8160    -0.6690   -10.2460 ha         1 P0F       0.142000
     33 H11         -1.8420    -2.1640    -8.5500 ha         1 P0F       0.134000
     34 H12         -0.6950    -1.2260    -6.5850 ha         1 P0F       0.120000
@<TRIPOS>BOND
     1     1     2 1
     2     2     3 ar
     3     2     8 ar
     4     3     4 ar
     5    21    22 ar
     6    21    20 ar
     7    22    16 ar
     8    20    18 ar
     9     9     8 1
    10     9    10 1
    11    12    15 1
    12    12    11 1
    13    16    15 1
    14    16    17 ar
    15     8     6 ar
    16    18    17 ar
    17    18    19 1
    18    15    14 2
    19    10    11 1
    20     4     5 ar
    21    11    13 2
    22    14    13 1
    23     6     5 ar
    24     6     7 1
    25     3    23 1
    26     4    24 1
    27     5    25 1
    28     9    26 1
    29     9    27 1
    30    10    28 1
    31    12    29 1
    32    17    30 1
    33    19    31 1
    34    20    32 1
    35    21    33 1
    36    22    34 1
@<TRIPOS>SUBSTRUCTURE
     1 P0F         1 TEMP              0 ****  ****    0 ROOT
