@<TRIPOS>MOLECULE
molecule
   53    55     1     0     0
SMALL
bcc


@<TRIPOS>ATOM
      1 CAA          0.0000     0.0000     0.0000 c3         1 P0G      -0.059800
      2 CAB         -0.3670    -2.0630     1.7410 c3         1 P0G      -0.112600
      3 CAC          1.2840    -2.2930     3.6030 c3         1 P0G      -0.112600
      4 OAD         -6.4660    -6.5420     2.1350 o          1 P0G      -0.611500
      5 OAE         -4.3860    -8.0820     6.2620 oh         1 P0G      -0.515100
      6 OAF         -2.1300    -2.2440     6.5240 oh         1 P0G      -0.612800
      7 CAG          3.7750     0.0000     0.0000 ca         1 P0G      -0.128000
      8 CAH          4.0520     0.0000     1.3550 ca         1 P0G      -0.133000
      9 CAI          2.4640    -0.0010    -0.4390 ca         1 P0G      -0.127000
     10 CAJ          3.0170    -0.0050     2.2700 ca         1 P0G      -0.123000
     11 CAK         -3.0190    -6.2300     6.8660 ca         1 P0G      -0.181000
     12 CAL         -2.5810    -4.9400     6.6280 ca         1 P0G      -0.083000
     13 CAM         -4.8520    -4.8540     2.4920 c3         1 P0G       0.071400
     14 CAN         -1.4530    -2.8450     4.2840 c3         1 P0G       0.158800
     15 CAO          0.5770    -0.0230     2.8320 c3         1 P0G      -0.026100
     16 NAP         -0.9830    -1.4750     4.0370 n7         1 P0G      -0.816200
     17 NAQ         -5.4020    -6.6670     4.0830 ns         1 P0G      -0.452100
     18 OAR         -4.5180    -4.1000     3.6580 os         1 P0G      -0.319900
     19 CAS         -5.6300    -6.0860     2.8840 c          1 P0G       0.666500
     20 CAT          1.4290     0.0000     0.4790 ca         1 P0G      -0.079300
     21 CAU         -3.9560    -6.8140     6.0270 ca         1 P0G       0.100100
     22 CAV          1.7050    -0.0110     1.8320 ca         1 P0G      -0.080300
     23 CAW         -3.0770    -4.2220     5.5550 ca         1 P0G      -0.122300
     24 CAX         -4.4520    -6.0970     4.9450 ca         1 P0G      -0.017400
     25 CAY         -4.0170    -4.7950     4.7150 ca         1 P0G       0.110100
     26 CAZ         -2.5950    -2.8170     5.3000 c3         1 P0G       0.200400
     27 CBA          0.1170    -1.4630     3.0630 c3         1 P0G       0.175200
     28 HAA         -0.2520    -0.9810    -0.3840 hc         1 P0G       0.047700
     29 HAAA        -0.6570     0.2450     0.8260 hc         1 P0G       0.047700
     30 HAAB        -0.1180     0.7360    -0.7860 hc         1 P0G       0.047700
     31 HAB         -0.5650    -3.1200     1.8750 hc         1 P0G       0.042867
     32 HABA        -1.2750    -1.5630     1.4280 hc         1 P0G       0.042867
     33 HABB         0.3970    -1.9330     0.9840 hc         1 P0G       0.042867
     34 HAC          1.5870    -1.9040     4.5670 hc         1 P0G       0.042867
     35 HACA         2.1170    -2.2360     2.9130 hc         1 P0G       0.042867
     36 HACB         0.9740    -3.3250     3.7100 hc         1 P0G       0.042867
     37 HOAE        -4.7340    -8.1380     7.1360 ho         1 P0G       0.426000
     38 HOAF        -2.7860    -1.6600     6.8670 ho         1 P0G       0.410000
     39 HAG          4.5860     0.0020    -0.7180 ha         1 P0G       0.128000
     40 HAH          5.0800     0.0030     1.6980 ha         1 P0G       0.129000
     41 HAI          2.2480    -0.0010    -1.5000 ha         1 P0G       0.130000
     42 HAJ          3.2340    -0.0050     3.3310 ha         1 P0G       0.130000
     43 HAK         -2.6260    -6.7870     7.7090 ha         1 P0G       0.144000
     44 HAL         -1.8490    -4.4890     7.2870 ha         1 P0G       0.160000
     45 HAM         -3.9430    -5.1510     1.9840 h1         1 P0G       0.087700
     46 HAMA        -5.4570    -4.2450     1.8310 h1         1 P0G       0.087700
     47 HAN         -0.6370    -3.4420     4.6750 h1         1 P0G       0.047700
     48 HANA        -1.8060    -3.2790     3.3560 h1         1 P0G       0.047700
     49 HAO         -0.2500     0.5630     2.4500 hc         1 P0G       0.057200
     50 HAOA         0.9190     0.4010     3.7680 hc         1 P0G       0.057200
     51 HNAP        -0.6710    -1.0690     4.8960 hn         1 P0G       0.363800
     52 HNAQ        -5.7700    -7.5780     4.2750 hn         1 P0G       0.352500
     53 HAZ         -3.4110    -2.2210     4.9100 h1         1 P0G       0.066700
@<TRIPOS>BOND
     1     1    20 1
     2     1    28 1
     3     1    29 1
     4     1    30 1
     5     2    27 1
     6     2    31 1
     7     2    32 1
     8     2    33 1
     9    27     3 1
    10     3    34 1
    11     3    35 1
    12     3    36 1
    13     4    19 2
    14     5    21 1
    15     5    37 1
    16     6    26 1
    17     6    38 1
    18     9     7 ar
    19     7     8 ar
    20     7    39 1
    21    10     8 ar
    22     8    40 1
    23    20     9 ar
    24     9    41 1
    25    22    10 ar
    26    10    42 1
    27    21    11 ar
    28    11    12 ar
    29    11    43 1
    30    12    23 ar
    31    12    44 1
    32    19    13 1
    33    13    18 1
    34    13    45 1
    35    13    46 1
    36    14    26 1
    37    14    16 1
    38    14    47 1
    39    14    48 1
    40    27    15 1
    41    15    22 1
    42    15    49 1
    43    15    50 1
    44    16    27 1
    45    16    51 1
    46    17    24 1
    47    17    19 1
    48    17    52 1
    49    25    18 1
    50    20    22 ar
    51    21    24 ar
    52    25    23 ar
    53    23    26 1
    54    24    25 ar
    55    26    53 1
@<TRIPOS>SUBSTRUCTURE
     1 P0G         1 TEMP              0 ****  ****    0 ROOT
