@<TRIPOS>MOLECULE
molecule
   27    27     1     0     0
SMALL
bcc


@<TRIPOS>ATOM
      1 O3           0.0000     0.0000     0.0000 oh         1 P0P      -0.497100
      2 N1           3.5660     0.0000     0.0000 nb         1 P0P      -0.706000
      3 C2           2.3190     0.0000     0.4510 ca         1 P0P       0.337600
      4 C2A          2.0120     0.0100     1.9250 c3         1 P0P      -0.125400
      5 C3           1.2760    -0.0040    -0.4360 ca         1 P0P      -0.004200
      6 C4           1.5290     0.0060    -1.8080 ca         1 P0P      -0.072300
      7 C4A          0.3490     0.0360    -2.7730 c3         1 P0P       0.383200
      8 O4A         -0.8030     0.4570    -2.0990 oh         1 P0P      -0.620800
      9 O4B          0.1010    -1.2220    -3.3130 oh         1 P0P      -0.620800
     10 C5           2.8500    -0.0350    -2.2920 ca         1 P0P      -0.074600
     11 C6           3.8430     0.0100    -1.3190 ca         1 P0P       0.387200
     12 C5A          2.9600     0.1040    -3.6280 c3         1 P0P       0.175700
     13 O4P          2.9110     1.2110    -4.3800 os         1 P0P      -0.519200
     14 P            2.7300     0.9140    -5.9400 p5         1 P0P       1.162900
     15 O1P          1.4300     0.2640    -6.1640 o          1 P0P      -0.899167
     16 O2P          2.6810     2.3420    -6.6570 o          1 P0P      -0.899167
     17 O3P          3.9060    -0.0160    -6.5410 o          1 P0P      -0.899167
     18 HO3         -0.2190    -0.8520     0.3400 ho         1 P0P       0.395000
     19 H2A1         1.3430     0.8330     2.1490 hc         1 P0P       0.032700
     20 H2A2         2.9320     0.1300     2.4850 hc         1 P0P       0.032700
     21 H2A3         1.5400    -0.9250     2.2020 hc         1 P0P       0.032700
     22 H4A          0.5650     0.7310    -3.5750 h2         1 P0P       0.108700
     23 H1          -1.3400     0.9670    -2.6830 ho         1 P0P       0.402000
     24 H4B         -0.7720    -1.2460    -3.6660 ho         1 P0P       0.402000
     25 H6           4.8780     0.0560    -1.6340 h4         1 P0P       0.025100
     26 H5A1         2.1940    -0.5430    -4.0380 h1         1 P0P       0.030200
     27 H5A2         3.9090    -0.3560    -3.8760 h1         1 P0P       0.030200
@<TRIPOS>BOND
     1     1     5 1
     2     1    18 1
     3     2     3 ar
     4     2    11 ar
     5     3     4 1
     6     3     5 ar
     7     4    19 1
     8     4    20 1
     9     4    21 1
    10     5     6 ar
    11     6     7 1
    12     6    10 ar
    13     7     8 1
    14     7     9 1
    15     7    22 1
    16     8    23 1
    17     9    24 1
    18    10    11 ar
    19    10    12 1
    20    11    25 1
    21    12    13 1
    22    12    26 1
    23    12    27 1
    24    13    14 1
    25    14    15 1
    26    14    16 1
    27    14    17 1
@<TRIPOS>SUBSTRUCTURE
     1 P0P         1 TEMP              0 ****  ****    0 ROOT
