@<TRIPOS>MOLECULE
P0P
   27    27     1     0     0
SMALL
bcc


@<TRIPOS>ATOM
      1 O3         -0.0240   -0.6270    0.4490 oh        1 P0P     -0.555100
      2 N1          3.1860    0.8950   -0.4050 n2        1 P0P     -0.443000
      3 C2          2.0970    0.4520    0.2810 cc        1 P0P      0.047800
      4 C2A         1.9780    0.7760    1.7360 c3        1 P0P     -0.015900
      5 C3          1.0660   -0.2710   -0.3350 cd        1 P0P     -0.081900
      6 C4          1.1200   -0.6200   -1.7320 cd        1 P0P      0.080000
      7 C4A         0.1690   -1.4550   -2.2890 c2        1 P0P     -0.145800
      8 O4A        -1.0070   -1.8280   -1.6690 oh        1 P0P     -0.526100
      9 O4B         0.1190   -1.9210   -3.5780 oh        1 P0P     -0.526100
     10 C5          2.2600   -0.1040   -2.4360 cd        1 P0P     -0.246200
     11 C6          3.2280    0.6010   -1.7220 cc        1 P0P      0.035000
     12 C5A         2.3940   -0.3330   -3.9070 c3        1 P0P      0.237600
     13 O4P         3.5680    0.2080   -4.4450 os        1 P0P     -0.605200
     14 P           3.4370    1.2930   -5.6810 p5        1 P0P      1.435800
     15 O1P         3.3540    2.5970   -4.6940 oh        1 P0P     -0.794400
     16 O2P         4.7220    1.3230   -6.4100 o         1 P0P     -0.846500
     17 O3P         2.1270    1.1340   -6.3500 o         1 P0P     -0.846500
     18 HO3        -0.2390   -1.5420    0.2110 ho        1 P0P      0.413000
     19 H2A1        1.4220    1.7380    1.8610 hc        1 P0P      0.017700
     20 H2A2        1.4030   -0.0300    2.2540 hc        1 P0P      0.017700
     21 H2A3        2.9770    0.8800    2.2240 hc        1 P0P      0.017700
     22 H4A         3.1280    2.3770   -3.7960 ho        1 P0P      0.432000
     23 H1         -1.6270   -1.0910   -1.7900 ho        1 P0P      0.343000
     24 H4B        -0.2050   -1.1900   -4.1300 ho        1 P0P      0.343000
     25 H6          4.1270    0.9720   -2.2500 h4        1 P0P      0.143000
     26 H5A1        1.5020    0.1080   -4.4420 h1        1 P0P      0.035200
     27 H5A2        2.4050   -1.4490   -4.0910 h1        1 P0P      0.035200
@<TRIPOS>BOND
     1    1    5 1   
     2    1   18 1   
     3    2    3 1   
     4    2   11 1   
     5    3    4 1   
     6    3    5 2   
     7    4   19 1   
     8    4   20 1   
     9    4   21 1   
    10    5    6 1   
    11    6    7 2   
    12    6   10 1   
    13    7    8 1   
    14    7    9 1   
    15    8   23 1   
    16    9   24 1   
    17   10   11 2   
    18   10   12 1   
    19   11   25 1   
    20   12   13 1   
    21   12   26 1   
    22   12   27 1   
    23   13   14 1   
    24   14   15 1   
    25   14   16 1   
    26   14   17 1   
    27   15   22 1   
@<TRIPOS>SUBSTRUCTURE
     1 P0P         1 TEMP              0 ****  ****    0 ROOT
