@<TRIPOS>MOLECULE
molecule
   64    66     1     0     0
SMALL
bcc


@<TRIPOS>ATOM
      1 C12          0.0000     0.0000     0.0000 c          1 P10       0.546100
      2 C2          -0.7550    -1.2600     0.3400 c3         1 P10       0.045400
      3 O1          -2.1590    -1.0070     0.2730 oh         1 P10      -0.581800
      4 O13         -0.6040     1.0110    -0.2710 o          1 P10      -0.478100
      5 C14          1.5070     0.0000     0.0000 c3         1 P10       0.021700
      6 C15          2.0170     0.0000     1.4420 c3         1 P10      -0.085400
      7 C16          3.5420    -0.1270     1.4440 c3         1 P10      -0.034100
      8 C17          4.0460    -0.1250     2.8640 ca         1 P10      -0.090300
      9 C18          4.1770    -1.3170     3.5510 ca         1 P10      -0.124000
     10 C19          4.6380    -1.3170     4.8540 ca         1 P10      -0.123500
     11 C20          4.9680    -0.1230     5.4700 ca         1 P10      -0.127000
     12 C21          4.8370     1.0680     4.7820 ca         1 P10      -0.123500
     13 C22          4.3800     1.0670     3.4780 ca         1 P10      -0.124000
     14 N23          1.9960     1.1950    -0.6920 ns         1 P10      -0.563900
     15 C24          2.1240     1.1920    -2.0330 c          1 P10       0.657100
     16 O25          1.8350     0.2000    -2.6680 o          1 P10      -0.608100
     17 C26          2.6260     2.4210    -2.7450 c3         1 P10       0.070700
     18 C27          1.6830     3.5930    -2.4660 c3         1 P10      -0.048100
     19 C28          2.2500     4.8500    -3.0750 ca         1 P10      -0.071300
     20 C29          1.9240     5.1970    -4.3730 ca         1 P10      -0.113500
     21 C30          2.4440     6.3500    -4.9320 ca         1 P10      -0.121000
     22 C31          3.2890     7.1560    -4.1930 ca         1 P10      -0.123000
     23 C32          3.6140     6.8100    -2.8940 ca         1 P10      -0.121000
     24 C33          3.0910     5.6590    -2.3340 ca         1 P10      -0.113500
     25 N34          2.6750     2.1660    -4.1870 ns         1 P10      -0.557900
     26 C35          3.5220     2.8650    -4.9670 c          1 P10       0.756100
     27 O36          4.2460     3.7080    -4.4750 o          1 P10      -0.608000
     28 O37          3.5670     2.6310    -6.2920 os         1 P10      -0.447900
     29 C38          4.4800     3.3840    -7.1330 c3         1 P10       0.227700
     30 C39          4.3350     2.9330    -8.5630 ca         1 P10      -0.226600
     31 C40          3.4220     3.5510    -9.4040 ca         1 P10      -0.068000
     32 C41          3.3230     3.1020   -10.7130 ca         1 P10      -0.260300
     33 C42          4.1300     2.0610   -11.1320 ca         1 P10       0.430200
     34 N43          4.9870     1.4980   -10.3030 nb         1 P10      -0.692000
     35 C44          5.1130     1.9020    -9.0540 ca         1 P10       0.445200
     36 H021        -0.4940    -2.0390    -0.3670 h1         1 P10       0.043700
     37 H022        -0.4930    -1.5790     1.3410 h1         1 P10       0.043700
     38 H01         -2.6310    -1.8030     0.4500 ho         1 P10       0.406000
     39 H14          1.8670    -0.8850    -0.5100 h1         1 P10       0.096700
     40 H151         1.7310     0.9260     1.9260 hc         1 P10       0.060200
     41 H152         1.5850    -0.8360     1.9780 hc         1 P10       0.060200
     42 H161         3.8280    -1.0530     0.9600 hc         1 P10       0.054700
     43 H162         3.9740     0.7090     0.9070 hc         1 P10       0.054700
     44 H18          3.9180    -2.2520     3.0690 ha         1 P10       0.128500
     45 H19          4.7400    -2.2510     5.3930 ha         1 P10       0.131500
     46 H20          5.3280    -0.1230     6.4920 ha         1 P10       0.131000
     47 H21          5.0980     2.0030     5.2640 ha         1 P10       0.131500
     48 H22          4.2770     2.0010     2.9390 ha         1 P10       0.128500
     49 H23          2.2170     2.0200    -0.1700 hn         1 P10       0.325500
     50 H26          3.6200     2.6650    -2.3880 h1         1 P10       0.097700
     51 H271         1.5780     3.7260    -1.3960 hc         1 P10       0.061700
     52 H272         0.7130     3.3870    -2.9010 hc         1 P10       0.061700
     53 H29          1.2610     4.5650    -4.9530 ha         1 P10       0.124000
     54 H30          2.1890     6.6220    -5.9490 ha         1 P10       0.124500
     55 H31          3.6970     8.0580    -4.6310 ha         1 P10       0.125000
     56 H32          4.2750     7.4430    -2.3140 ha         1 P10       0.124500
     57 H33          3.3460     5.3880    -1.3170 ha         1 P10       0.124000
     58 H34          2.0940     1.4570    -4.5890 hn         1 P10       0.346500
     59 H381         4.2490     4.4400    -7.0630 h1         1 P10       0.056700
     60 H382         5.4980     3.2150    -6.8030 h1         1 P10       0.056700
     61 H40          2.8010     4.3640    -9.0480 ha         1 P10       0.142000
     62 H41          2.6200     3.5610   -11.3980 ha         1 P10       0.140000
     63 H42          4.0570     1.7030   -12.1510 h4         1 P10       0.024100
     64 H44          5.8280     1.4140    -8.4030 h4         1 P10       0.028100
@<TRIPOS>BOND
     1     1     2 1
     2     1     4 2
     3     1     5 1
     4     2     3 1
     5     2    36 1
     6     2    37 1
     7     3    38 1
     8     5     6 1
     9     5    14 1
    10     5    39 1
    11     6     7 1
    12     6    40 1
    13     6    41 1
    14     7     8 1
    15     7    42 1
    16     7    43 1
    17     8     9 ar
    18     8    13 ar
    19     9    10 ar
    20     9    44 1
    21    10    11 ar
    22    10    45 1
    23    11    12 ar
    24    11    46 1
    25    12    13 ar
    26    12    47 1
    27    13    48 1
    28    14    15 1
    29    14    49 1
    30    15    16 2
    31    15    17 1
    32    17    18 1
    33    17    25 1
    34    17    50 1
    35    18    19 1
    36    18    51 1
    37    18    52 1
    38    19    20 ar
    39    19    24 ar
    40    20    21 ar
    41    20    53 1
    42    21    22 ar
    43    21    54 1
    44    22    23 ar
    45    22    55 1
    46    23    24 ar
    47    23    56 1
    48    24    57 1
    49    25    26 1
    50    25    58 1
    51    26    27 2
    52    26    28 1
    53    28    29 1
    54    29    30 1
    55    29    59 1
    56    29    60 1
    57    30    31 ar
    58    30    35 ar
    59    31    32 ar
    60    31    61 1
    61    32    33 ar
    62    32    62 1
    63    33    34 ar
    64    33    63 1
    65    34    35 ar
    66    35    64 1
@<TRIPOS>SUBSTRUCTURE
     1 P10         1 TEMP              0 ****  ****    0 ROOT
