@<TRIPOS>MOLECULE
P12
   53    54     1     0     0
SMALL
bcc


@<TRIPOS>ATOM
      1 C5           0.0000     0.0000     0.0000 ca         1 P12      -0.115000
      2 C4           1.3950     0.0000     0.0000 ca         1 P12       0.184100
      3 C3           2.0940     0.0000     1.2070 ca         1 P12      -0.064000
      4 C2           1.3930    -0.0000     2.4090 ca         1 P12      -0.144300
      5 C1           0.0020    -0.0000     2.4170 ca         1 P12       0.031100
      6 C6          -0.6970    -0.0000     1.2090 ca         1 P12      -0.092000
      7 OA          -0.6940     0.0010     3.5880 os         1 P12      -0.399900
      8 CB          -1.9710     0.6360     3.5830 c3         1 P12       0.233400
      9 CG          -2.2570     1.1790     4.9750 c3         1 P12      -0.054400
     10 CD          -2.2820     0.0650     6.0090 c3         1 P12      -0.032200
     11 NE          -2.5190     0.6510     7.3490 nz         1 P12       0.079400
     12 CG1          1.5960    -2.3870     4.1590 c3         1 P12      -0.005200
     13 CD1          0.9440    -3.3040     5.1840 c3         1 P12       0.171800
     14 NE1          1.5910    -3.1800     6.4830 nh         1 P12      -0.509600
     15 CD2          1.7110    -1.8320     7.0220 c3         1 P12       0.171800
     16 CG2          2.3710    -0.8990     6.0180 c3         1 P12      -0.005200
     17 NB           1.6220    -0.9760     4.7050 nx         1 P12      -0.023400
     18 CA           2.1600     0.0010     3.6980 c3         1 P12       0.114100
     19 NH1          1.3250    -5.4390     7.0610 n2         1 P12      -0.454100
     20 NH2          3.0610    -4.1810     8.0140 nz         1 P12       0.204400
     21 OA1          2.0750    -0.0010    -1.1800 os         1 P12      -0.275900
     22 CB1          1.2970    -0.0010    -2.3770 c3         1 P12       0.242700
     23 H5          -0.5420     0.0000    -0.9380 ha         1 P12       0.157000
     24 H3           3.1770     0.0000     1.2080 ha         1 P12       0.146000
     25 H6          -1.7800    -0.0000     1.2100 ha         1 P12       0.132000
     26 HB1         -1.9680     1.4510     2.8690 h1         1 P12       0.047700
     27 HB2         -2.7330    -0.0830     3.3100 h1         1 P12       0.047700
     28 HG1         -1.4880     1.8930     5.2420 hc         1 P12       0.054700
     29 HG2         -3.2180     1.6790     4.9700 hc         1 P12       0.054700
     30 HD1         -1.3320    -0.4550     6.0040 hx         1 P12       0.067700
     31 HD2         -3.0780    -0.6310     5.7720 hx         1 P12       0.067700
     32 HE1         -1.7990     1.3150     7.5550 hn         1 P12       0.233133
     33 HE2         -3.4090     1.1100     7.3610 hn         1 P12       0.233133
     34 HE3         -2.5090    -0.0750     8.0370 hn         1 P12       0.233133
     35 HG11         2.6090    -2.7200     3.9690 hx         1 P12       0.098200
     36 HG12         1.0240    -2.4090     3.2400 hx         1 P12       0.098200
     37 HD11        -0.1010    -3.0380     5.2820 h1         1 P12       0.044700
     38 HD12         1.0260    -4.3290     4.8440 h1         1 P12       0.044700
     39 HD21         0.7230    -1.4570     7.2590 h1         1 P12       0.044700
     40 HD22         2.3110    -1.8640     7.9240 h1         1 P12       0.044700
     41 HG21         2.3380     0.1160     6.3940 hx         1 P12       0.098200
     42 HG22         3.4000    -1.2020     5.8660 hx         1 P12       0.098200
     43 HB           0.6740    -0.7180     4.8940 hn         1 P12       0.260800
     44 HA1          1.1950     0.2200     4.1400 hx         1 P12       0.048200
     45 HA2          2.7870     0.8390     3.9800 hx         1 P12       0.048200
     46 HH11         0.5350    -5.5030     6.4500 hn         1 P12       0.377400
     47 HH21         2.7920    -3.7140     8.8580 hn         1 P12       0.232467
     48 HH22         3.8000    -3.6720     7.5710 hn         1 P12       0.232467
     49 HB11         0.6740     0.8840    -2.4030 h1         1 P12       0.018033
     50 HB12         0.6710    -0.8850    -2.4010 h1         1 P12       0.018033
     51 HB3          1.9580    -0.0030    -3.2360 h1         1 P12       0.018033
     52 HH23         3.3840    -5.1030     8.2320 hn         1 P12       0.232467
     53 CZ           1.9930    -4.2680     7.1860 c2         1 P12       0.209100
@<TRIPOS>BOND
     1     1     2 ar  
     2     1     6 ar  
     3     1    23 1   
     4     2     3 ar  
     5     2    21 1   
     6     3     4 ar  
     7     3    24 1   
     8     4     5 ar  
     9     4    18 1   
    10     5     6 ar  
    11     5     7 1   
    12     6    25 1   
    13     7     8 1   
    14     8     9 1   
    15     8    26 1   
    16     8    27 1   
    17     9    10 1   
    18     9    28 1   
    19     9    29 1   
    20    10    11 1   
    21    10    30 1   
    22    10    31 1   
    23    11    32 1   
    24    11    33 1   
    25    11    34 1   
    26    12    13 1   
    27    12    17 1   
    28    12    35 1   
    29    12    36 1   
    30    13    14 1   
    31    13    37 1   
    32    13    38 1   
    33    14    15 1   
    34    14    53 1   
    35    15    16 1   
    36    15    39 1   
    37    15    40 1   
    38    16    17 1   
    39    16    41 1   
    40    16    42 1   
    41    17    18 1   
    42    17    43 1   
    43    18    44 1   
    44    18    45 1   
    45    19    46 1   
    46    19    53 2   
    47    20    47 1   
    48    20    48 1   
    49    20    52 1   
    50    20    53 1   
    51    21    22 1   
    52    22    49 1   
    53    22    50 1   
    54    22    51 1   
@<TRIPOS>SUBSTRUCTURE
     1 P12         1 TEMP              0 ****  ****    0 ROOT
