@<TRIPOS>MOLECULE
P13
   64    67     1     0     0
SMALL
bcc


@<TRIPOS>ATOM
      1 C1           0.0000     0.0000     0.0000 ca         1 P13      -0.074000
      2 C2           1.4150     0.0000     0.0000 cp         1 P13       0.004000
      3 C3           2.1230     0.0000     1.2310 ca         1 P13      -0.072000
      4 C4           1.4150    -0.0030     2.4640 ca         1 P13      -0.089300
      5 C5          -0.0120     0.0130     2.4620 ca         1 P13       0.083100
      6 C6          -0.7160     0.0100     1.2260 ca         1 P13      -0.130000
      7 N           -2.9920    -0.2900     7.2300 nz         1 P13       0.077400
      8 CB          -1.9690    -0.7580     6.2680 c3         1 P13      -0.053200
      9 CA          -2.6110    -0.9360     4.8910 c3         1 P13      -0.041400
     10 C           -1.5190    -1.1620     3.8420 c3         1 P13       0.201400
     11 O           -0.7410     0.0360     3.6990 os         1 P13      -0.345900
     12 CA1          2.2040    -0.0010     3.7890 c3         1 P13       0.214100
     13 NB           1.4220    -0.6680     4.8550 n7         1 P13      -0.605200
     14 CG           2.2980    -0.9340     6.0270 c3         1 P13       0.133800
     15 CD           2.9580    -2.3080     5.8790 c3         1 P13       0.146800
     16 NE           2.3140    -3.2660     6.8050 n3         1 P13      -0.564600
     17 CH1          2.7420    -2.9650     8.2010 c3         1 P13       0.150800
     18 CI1          2.0780    -3.9600     9.1660 c3         1 P13       0.150300
     19 NJ           2.4690    -5.3490     8.7920 n7         1 P13      -0.581200
     20 CI2          2.0430    -5.6530     7.3970 c3         1 P13       0.150300
     21 CH2          2.7040    -4.6550     6.4300 c3         1 P13       0.150800
     22 N1           4.0530    -0.1760    -4.9640 na         1 P13       0.357600
     23 C21          3.5600    -1.4340    -5.3800 cc         1 P13      -0.309100
     24 C31          2.7210    -1.9990    -4.3920 cd         1 P13      -0.141200
     25 C41          1.9900    -1.0990    -2.1080 ca         1 P13      -0.023000
     26 C51          2.1070     0.0050    -1.2190 cp         1 P13      -0.106000
     27 C61          2.9210     1.1160    -1.5730 ca         1 P13      -0.079000
     28 C71          3.6150     1.1230    -2.8140 ca         1 P13      -0.097000
     29 C81          3.4830     0.0170    -3.7110 ca         1 P13      -0.221200
     30 C91          2.6790    -1.0830    -3.3630 ca         1 P13      -0.076800
     31 H1          -0.5390    -0.0010    -0.9390 ha         1 P13       0.119000
     32 H3           3.2070    -0.0060     1.2310 ha         1 P13       0.120000
     33 H6          -1.7990     0.0160     1.2200 ha         1 P13       0.108000
     34 HN1A        -2.5930    -0.2490     8.1470 hn         1 P13       0.222467
     35 HN2         -3.7650    -0.9250     7.2310 hn         1 P13       0.222467
     36 HB1         -1.1730    -0.0260     6.2030 hx         1 P13       0.095200
     37 HB2         -1.5640    -1.7040     6.6030 hx         1 P13       0.095200
     38 HA1         -3.1760    -0.0470     4.6380 hc         1 P13       0.035700
     39 HA2         -3.2750    -1.7920     4.9100 hc         1 P13       0.035700
     40 HC1         -1.9760    -1.4120     2.8920 h1         1 P13       0.033200
     41 HC2         -0.8760    -1.9750     4.1580 h1         1 P13       0.033200
     42 HA11         3.1400    -0.5290     3.6490 h1         1 P13       0.018700
     43 HA12         2.4090     1.0210     4.0820 h1         1 P13       0.018700
     44 HB11         0.6650    -0.0760     5.1330 hn         1 P13       0.254800
     45 HG1          3.0650    -0.1710     6.0840 h1         1 P13       0.009700
     46 HG2          1.7040    -0.9160     6.9330 h1         1 P13       0.009700
     47 HD1          4.0120    -2.2300     6.1150 h1         1 P13       0.025700
     48 HD2          2.8410    -2.6570     4.8600 h1         1 P13       0.025700
     49 HH11         2.4410    -1.9570     8.4610 h1         1 P13       0.018700
     50 HH12         3.8190    -3.0560     8.2750 h1         1 P13       0.018700
     51 HI11         1.0010    -3.8600     9.1020 h1         1 P13       0.007200
     52 HI12         2.4060    -3.7540    10.1780 h1         1 P13       0.007200
     53 HJ1          2.0380    -5.9980     9.4210 hn         1 P13       0.258800
     54 HI21         2.3470    -6.6600     7.1390 h1         1 P13       0.007200
     55 HI22         0.9650    -5.5650     7.3230 h1         1 P13       0.007200
     56 HH21         2.3730    -4.8610     5.4190 h1         1 P13       0.018700
     57 HH22         3.7810    -4.7550     6.4910 h1         1 P13       0.018700
     58 HN1          4.6620     0.3610    -5.5500 hn         1 P13       0.134700
     59 H2           3.8030    -1.8800    -6.3360 h4         1 P13       0.139000
     60 H31          2.2860    -2.9650    -4.6180 ha         1 P13       0.135000
     61 H4           1.4170    -1.9710    -1.8150 ha         1 P13       0.104000
     62 H61          3.0070     1.9600    -0.9000 ha         1 P13       0.105000
     63 H7           4.2350     1.9690    -3.0830 ha         1 P13       0.104000
     64 HN3         -3.3010     0.6260     6.9700 hn         1 P13       0.222467
@<TRIPOS>BOND
     1     1     2 ar  
     2     1     6 ar  
     3     1    31 1   
     4     2     3 ar  
     5     2    26 1   
     6     3     4 ar  
     7     3    32 1   
     8     4     5 ar  
     9     4    12 1   
    10     5     6 ar  
    11     5    11 1   
    12     6    33 1   
    13     7     8 1   
    14     7    34 1   
    15     7    35 1   
    16     7    64 1   
    17     8     9 1   
    18     8    36 1   
    19     8    37 1   
    20     9    10 1   
    21     9    38 1   
    22     9    39 1   
    23    10    11 1   
    24    10    40 1   
    25    10    41 1   
    26    12    13 1   
    27    12    42 1   
    28    12    43 1   
    29    13    14 1   
    30    13    44 1   
    31    14    15 1   
    32    14    45 1   
    33    14    46 1   
    34    15    16 1   
    35    15    47 1   
    36    15    48 1   
    37    16    17 1   
    38    16    21 1   
    39    17    18 1   
    40    17    49 1   
    41    17    50 1   
    42    18    19 1   
    43    18    51 1   
    44    18    52 1   
    45    19    20 1   
    46    19    53 1   
    47    20    21 1   
    48    20    54 1   
    49    20    55 1   
    50    21    56 1   
    51    21    57 1   
    52    22    23 1   
    53    22    29 1   
    54    22    58 1   
    55    23    24 2   
    56    23    59 1   
    57    24    30 1   
    58    24    60 1   
    59    25    26 ar  
    60    25    30 ar  
    61    25    61 1   
    62    26    27 ar  
    63    27    28 ar  
    64    27    62 1   
    65    28    29 ar  
    66    28    63 1   
    67    29    30 ar  
@<TRIPOS>SUBSTRUCTURE
     1 P13         1 TEMP              0 ****  ****    0 ROOT
