@<TRIPOS>MOLECULE
P14
   58    58     1     0     0
SMALL
bcc


@<TRIPOS>ATOM
      1 C1           0.0000     0.0000     0.0000 ca         1 P14       0.134100
      2 C2           1.3910     0.0000     0.0000 ca         1 P14      -0.092300
      3 C3           2.0990     0.0000     1.1970 ca         1 P14      -0.074000
      4 C4           1.4080    -0.0010     2.4090 ca         1 P14       0.223100
      5 C5           0.0120    -0.0030     2.4160 ca         1 P14      -0.121000
      6 C6          -0.6910    -0.0020     1.2110 ca         1 P14      -0.110000
      7 OA          -0.7020    -0.0000    -1.1680 os         1 P14      -0.306900
      8 CB          -1.9790     0.6340    -1.1550 c3         1 P14       0.194400
      9 CG          -2.2790     1.1920    -2.5340 c3         1 P14      -0.066700
     10 ND          -1.2620     2.2080    -2.8910 nu         1 P14       0.240900
     11 CE          -1.2970     2.8780    -4.1030 c2         1 P14      -0.287300
     12 NZ1         -2.3200     2.5820    -4.9970 nv         1 P14       0.155800
     13 NZ2         -0.3480     3.8350    -4.4500 nz         1 P14       0.225400
     14 CA           2.1510     0.0000    -1.2940 c3         1 P14       0.202100
     15 NB           2.4280     1.3510    -1.7640 n7         1 P14      -0.636200
     16 CG1          3.1760     1.3250    -3.0130 c3         1 P14       0.142800
     17 CD           3.5330     2.7300    -3.4850 c3         1 P14      -0.005400
     18 CE1          4.3430     2.7140    -4.7860 c3         1 P14      -0.028400
     19 CZ           4.6890     4.1160    -5.2760 c3         1 P14      -0.069700
     20 NH           3.5200     4.9040    -5.5580 nu         1 P14       0.180900
     21 CI           3.5780     6.2320    -6.0220 c2         1 P14      -0.228300
     22 NJ1          4.8100     6.8450    -6.2310 nv         1 P14       0.295800
     23 NJ2          2.4130     6.9470    -6.2800 nz         1 P14       0.200400
     24 O1           2.0940    -0.0030     3.5840 os         1 P14      -0.224900
     25 C11          1.3240    -0.0030     4.7860 c3         1 P14       0.234700
     26 H3           3.1820     0.0010     1.1890 ha         1 P14       0.147000
     27 H5          -0.5240    -0.0040     3.3570 ha         1 P14       0.161000
     28 H6          -1.7740    -0.0030     1.2170 ha         1 P14       0.136000
     29 HB1         -2.7390    -0.0890    -0.8850 h1         1 P14       0.056700
     30 HB2         -1.9750     1.4410    -0.4310 h1         1 P14       0.056700
     31 HG1         -3.2610     1.6500    -2.5330 h1         1 P14       0.083200
     32 HG2         -2.2570     0.3890    -3.2610 h1         1 P14       0.083200
     33 HD          -0.5420     2.4300    -2.2320 hn         1 P14       0.170700
     34 HZ11        -3.0090     1.8960    -4.7600 hn         1 P14       0.168200
     35 HZ12        -2.3660     3.0530    -5.8790 hn         1 P14       0.168200
     36 HZ21         0.3070     3.4370    -5.0930 hn         1 P14       0.212467
     37 HZ22        -0.8040     4.6170    -4.8780 hn         1 P14       0.212467
     38 HA1          1.5690    -0.5210    -2.0440 h1         1 P14       0.038200
     39 HA2          3.0890    -0.5220    -1.1510 h1         1 P14       0.038200
     40 HB11         2.9540     1.8440    -1.0700 hn         1 P14       0.275800
     41 HG11         4.0880     0.7590    -2.8670 h1         1 P14       0.032200
     42 HG12         2.5760     0.8390    -3.7740 h1         1 P14       0.032200
     43 HD1          2.6190     3.2900    -3.6470 hc         1 P14      -0.018800
     44 HD2          4.1150     3.2220    -2.7150 hc         1 P14      -0.018800
     45 HE1          5.2610     2.1640    -4.6200 hc         1 P14       0.067700
     46 HE2          3.7660     2.2090    -5.5510 hc         1 P14       0.067700
     47 HZ1          5.2740     4.6180    -4.5150 h1         1 P14       0.076700
     48 HZ2          5.2820     4.0350    -6.1780 h1         1 P14       0.076700
     49 HH           2.6210     4.4850    -5.4240 hn         1 P14       0.115700
     50 HJ11         5.6560     6.3420    -6.0500 hn         1 P14       0.177200
     51 HJ12         4.8490     7.7890    -6.5610 hn         1 P14       0.177200
     52 HJ21         1.8480     6.4400    -6.9320 hn         1 P14       0.241467
     53 HJ22         1.9040     7.0750    -5.4270 hn         1 P14       0.241467
     54 H11          0.6970     0.8800     4.8130 h1         1 P14       0.030033
     55 H12          0.7020    -0.8890     4.8160 h1         1 P14       0.030033
     56 H13          1.9900     0.0000     5.6410 h1         1 P14       0.030033
     57 HZ23         0.1350     4.1400    -3.6280 hn         1 P14       0.212467
     58 HJ23         2.6460     7.8300    -6.6890 hn         1 P14       0.241467
@<TRIPOS>BOND
     1     1     2 ar  
     2     1     6 ar  
     3     1     7 1   
     4     2     3 ar  
     5     2    14 1   
     6     3     4 ar  
     7     3    26 1   
     8     4     5 ar  
     9     4    24 1   
    10     5     6 ar  
    11     5    27 1   
    12     6    28 1   
    13     7     8 1   
    14     8     9 1   
    15     8    29 1   
    16     8    30 1   
    17     9    10 1   
    18     9    31 1   
    19     9    32 1   
    20    10    11 2   
    21    10    33 1   
    22    11    12 1   
    23    11    13 1   
    24    12    34 1   
    25    12    35 1   
    26    13    36 1   
    27    13    37 1   
    28    13    57 1   
    29    14    15 1   
    30    14    38 1   
    31    14    39 1   
    32    15    16 1   
    33    15    40 1   
    34    16    17 1   
    35    16    41 1   
    36    16    42 1   
    37    17    18 1   
    38    17    43 1   
    39    17    44 1   
    40    18    19 1   
    41    18    45 1   
    42    18    46 1   
    43    19    20 1   
    44    19    47 1   
    45    19    48 1   
    46    20    21 2   
    47    20    49 1   
    48    21    22 1   
    49    21    23 1   
    50    22    50 1   
    51    22    51 1   
    52    23    52 1   
    53    23    53 1   
    54    23    58 1   
    55    24    25 1   
    56    25    54 1   
    57    25    55 1   
    58    25    56 1   
@<TRIPOS>SUBSTRUCTURE
     1 P14         1 TEMP              0 ****  ****    0 ROOT
