@<TRIPOS>MOLECULE
molecule
   58    58     1     0     0
SMALL
bcc


@<TRIPOS>ATOM
      1 C1           0.0000     0.0000     0.0000 ca         1 P14       0.088100
      2 C2           1.3910     0.0000     0.0000 ca         1 P14      -0.076300
      3 C3           2.0990     0.0000     1.1970 ca         1 P14      -0.112000
      4 C4           1.4080    -0.0010     2.4090 ca         1 P14       0.194100
      5 C5           0.0120    -0.0030     2.4160 ca         1 P14      -0.152000
      6 C6          -0.6910    -0.0020     1.2110 ca         1 P14      -0.140000
      7 OA          -0.7020    -0.0000    -1.1680 os         1 P14      -0.333900
      8 CB          -1.9790     0.6340    -1.1550 c3         1 P14       0.120400
      9 CG          -2.2790     1.1920    -2.5340 c3         1 P14       0.007300
     10 ND          -1.2620     2.2080    -2.8910 nu         1 P14      -0.261100
     11 CE          -1.2970     2.8780    -4.1030 c2         1 P14       0.383700
     12 NZ1         -2.3200     2.5820    -4.9970 nv         1 P14      -0.429200
     13 NZ2         -0.3480     3.8350    -4.4500 nz         1 P14      -0.779600
     14 CA           2.1510     0.0000    -1.2940 c3         1 P14       0.202100
     15 NB           2.4280     1.3510    -1.7640 n7         1 P14      -0.869200
     16 CG1          3.1760     1.3250    -3.0130 c3         1 P14       0.150800
     17 CD           3.5330     2.7300    -3.4850 c3         1 P14      -0.078400
     18 CE1          4.3430     2.7140    -4.7860 c3         1 P14      -0.099400
     19 CZ           4.6890     4.1160    -5.2760 c3         1 P14       0.000300
     20 NH           3.5200     4.9040    -5.5580 nu         1 P14      -0.316100
     21 CI           3.5780     6.2320    -6.0220 c2         1 P14       0.411700
     22 NJ1          4.8100     6.8450    -6.2310 nv         1 P14      -0.354200
     23 NJ2          2.4130     6.9470    -6.2800 nz         1 P14      -0.777600
     24 O1           2.0940    -0.0030     3.5840 os         1 P14      -0.263900
     25 C11          1.3240    -0.0030     4.7860 c3         1 P14       0.108700
     26 H3           3.1820     0.0010     1.1890 ha         1 P14       0.179000
     27 H5          -0.5240    -0.0040     3.3570 ha         1 P14       0.186000
     28 H6          -1.7740    -0.0030     1.2170 ha         1 P14       0.157000
     29 HB1         -2.7390    -0.0890    -0.8850 h1         1 P14       0.104700
     30 HB2         -1.9750     1.4410    -0.4310 h1         1 P14       0.104700
     31 HG1         -2.2570     0.3890    -3.2610 h1         1 P14       0.120200
     32 HG2         -3.2610     1.6500    -2.5330 h1         1 P14       0.120200
     33 HD          -0.5470     2.4360    -2.2290 hn         1 P14       0.352700
     34 HZ11        -2.3660     3.0540    -5.8780 hn         1 P14       0.362200
     35 HZ12        -3.0100     1.8960    -4.7600 hn         1 P14       0.362200
     36 HZ21         0.3070     3.4370    -5.0940 hn         1 P14       0.472800
     37 HZ22        -0.8040     4.6170    -4.8780 hn         1 P14       0.472800
     38 HA1          3.0890    -0.5220    -1.1510 h1         1 P14       0.070700
     39 HA2          1.5690    -0.5210    -2.0440 h1         1 P14       0.070700
     40 HB11         2.9540     1.8440    -1.0700 hn         1 P14       0.374800
     41 HG11         4.0880     0.7590    -2.8670 h1         1 P14       0.061700
     42 HG12         2.5760     0.8390    -3.7740 h1         1 P14       0.061700
     43 HD1          2.6190     3.2900    -3.6470 hc         1 P14       0.013200
     44 HD2          4.1150     3.2220    -2.7150 hc         1 P14       0.013200
     45 HE1          3.7650     2.2090    -5.5510 hc         1 P14       0.108700
     46 HE2          5.2610     2.1640    -4.6200 hc         1 P14       0.108700
     47 HZ1          5.2820     4.0350    -6.1780 h1         1 P14       0.114200
     48 HZ2          5.2740     4.6180    -4.5150 h1         1 P14       0.114200
     49 HH           2.6210     4.4850    -5.4260 hn         1 P14       0.287700
     50 HJ11         4.8490     7.7890    -6.5620 hn         1 P14       0.380700
     51 HJ12         5.6560     6.3420    -6.0520 hn         1 P14       0.380700
     52 HJ21         1.9100     7.0860    -5.4250 hn         1 P14       0.506467
     53 HJ22         1.8420     6.4340    -6.9230 hn         1 P14       0.506467
     54 H11          0.7000    -0.8880     4.8140 h1         1 P14       0.075367
     55 H12          1.9900    -0.0030     5.6410 h1         1 P14       0.075367
     56 H13          0.6990     0.8810     4.8150 h1         1 P14       0.075367
     57 HZ23         0.1270     4.1480    -3.6270 hn         1 P14       0.472800
     58 HJ23         2.6460     7.8240    -6.7010 hn         1 P14       0.506467
@<TRIPOS>BOND
     1     1     2 ar
     2     1     6 ar
     3     1     7 1
     4     2     3 ar
     5     2    14 1
     6     3     4 ar
     7     3    26 1
     8     4     5 ar
     9     4    24 1
    10     5     6 ar
    11     5    27 1
    12     6    28 1
    13     7     8 1
    14     8     9 1
    15     8    29 1
    16     8    30 1
    17     9    10 1
    18     9    31 1
    19     9    32 1
    20    10    11 2
    21    10    33 1
    22    11    12 1
    23    11    13 1
    24    12    34 1
    25    12    35 1
    26    13    36 1
    27    13    37 1
    28    14    15 1
    29    14    38 1
    30    14    39 1
    31    15    16 1
    32    15    40 1
    33    16    17 1
    34    16    41 1
    35    16    42 1
    36    17    18 1
    37    17    43 1
    38    17    44 1
    39    18    19 1
    40    18    45 1
    41    18    46 1
    42    19    20 1
    43    19    47 1
    44    19    48 1
    45    20    21 2
    46    20    49 1
    47    21    22 1
    48    21    23 1
    49    22    50 1
    50    22    51 1
    51    23    52 1
    52    23    53 1
    53    24    25 1
    54    25    54 1
    55    25    55 1
    56    25    56 1
    57    57    13 1
    58    58    23 1
@<TRIPOS>SUBSTRUCTURE
     1 P14         1 TEMP              0 ****  ****    0 ROOT
