@<TRIPOS>MOLECULE
molecule
   48    47     1     0     0
SMALL
bcc


@<TRIPOS>ATOM
      1 C13          0.0000     0.0000     0.0000 c3         1 P15       0.114700
      2 O6           1.4300     0.0000     0.0000 os         1 P15      -0.399600
      3 C12          1.8420     0.0000     1.3680 c3         1 P15       0.125400
      4 C11          3.3700    -0.0010     1.4400 c3         1 P15       0.125400
      5 O5           3.8730     1.2200     0.8940 os         1 P15      -0.387600
      6 C10          5.2970     1.1590     0.9890 c3         1 P15       0.126400
      7 C9           5.9030     2.4430     0.4170 c3         1 P15       0.126400
      8 O4           5.5160     3.5540     1.2300 os         1 P15      -0.389600
      9 C8           6.1090     4.7170     0.6480 c3         1 P15       0.126400
     10 C7           5.7330     5.9480     1.4750 c3         1 P15       0.126400
     11 O3           6.3090     5.8420     2.7780 os         1 P15      -0.389600
     12 C6           5.9250     7.0150     3.4970 c3         1 P15       0.126400
     13 C5           6.5120     6.9640     4.9080 c3         1 P15       0.126400
     14 O2           7.9380     7.0180     4.8330 os         1 P15      -0.388600
     15 C4           8.4250     6.9670     6.1750 c3         1 P15       0.126400
     16 C3           9.9550     7.0210     6.1660 c3         1 P15       0.125400
     17 O1          10.3830     8.2860     5.6550 os         1 P15      -0.386600
     18 C2          11.8120     8.2750     5.6720 c3         1 P15       0.128400
     19 C1          12.3370     9.6070     5.1350 c3         1 P15       0.141400
     20 OXT         11.9580    10.6610     6.0220 oh         1 P15      -0.600800
     21 H131        -0.3610    -0.0000    -1.0210 h1         1 P15       0.029700
     22 H132        -0.3610    -0.8840     0.5110 h1         1 P15       0.029700
     23 H133        -0.3610     0.8850     0.5100 h1         1 P15       0.029700
     24 H121         1.4580     0.8850     1.8610 h1         1 P15       0.034700
     25 H122         1.4570    -0.8840     1.8610 h1         1 P15       0.034700
     26 H111         3.7580    -0.8370     0.8710 h1         1 P15       0.033200
     27 H112         3.6830    -0.0900     2.4730 h1         1 P15       0.033200
     28 H101         5.6600     0.3070     0.4260 h1         1 P15       0.033700
     29 H102         5.5860     1.0550     2.0280 h1         1 P15       0.033700
     30 H91          5.5440     2.5930    -0.5940 h1         1 P15       0.034700
     31 H92          6.9830     2.3610     0.4090 h1         1 P15       0.034700
     32 H81          5.7470     4.8380    -0.3660 h1         1 P15       0.034200
     33 H82          7.1860     4.6050     0.6360 h1         1 P15       0.034200
     34 H71          6.1080     6.8390     0.9860 h1         1 P15       0.034200
     35 H72          4.6550     6.0100     1.5610 h1         1 P15       0.034200
     36 H61          6.2970     7.8920     2.9820 h1         1 P15       0.034200
     37 H62          4.8440     7.0630     3.5580 h1         1 P15       0.034200
     38 H51          6.1490     7.8080     5.4820 h1         1 P15       0.034200
     39 H52          6.2110     6.0420     5.3920 h1         1 P15       0.034200
     40 H41          8.0990     6.0460     6.6430 h1         1 P15       0.034200
     41 H42          8.0370     7.8120     6.7320 h1         1 P15       0.034200
     42 H31         10.3270     6.8940     7.1750 h1         1 P15       0.033700
     43 H32         10.3400     6.2280     5.5360 h1         1 P15       0.033700
     44 H21         12.1600     8.1320     6.6880 h1         1 P15       0.033200
     45 H22         12.1740     7.4660     5.0490 h1         1 P15       0.033200
     46 H11         11.9170     9.7920     4.1540 h1         1 P15       0.028700
     47 H12         13.4180     9.5660     5.0640 h1         1 P15       0.028700
     48 HOXT        12.3570    11.4670     5.7410 ho         1 P15       0.399000
@<TRIPOS>BOND
     1     1     2 1
     2     1    21 1
     3     1    22 1
     4     1    23 1
     5     2     3 1
     6     3     4 1
     7     3    24 1
     8     3    25 1
     9     4     5 1
    10     4    26 1
    11     4    27 1
    12     5     6 1
    13     6     7 1
    14     6    28 1
    15     6    29 1
    16     7     8 1
    17     7    30 1
    18     7    31 1
    19     8     9 1
    20     9    10 1
    21     9    32 1
    22     9    33 1
    23    10    11 1
    24    10    34 1
    25    10    35 1
    26    11    12 1
    27    12    13 1
    28    12    36 1
    29    12    37 1
    30    13    14 1
    31    13    38 1
    32    13    39 1
    33    14    15 1
    34    15    16 1
    35    15    40 1
    36    15    41 1
    37    16    17 1
    38    16    42 1
    39    16    43 1
    40    17    18 1
    41    18    19 1
    42    18    44 1
    43    18    45 1
    44    19    20 1
    45    19    46 1
    46    19    47 1
    47    20    48 1
@<TRIPOS>SUBSTRUCTURE
     1 P15         1 TEMP              0 ****  ****    0 ROOT
