@<TRIPOS>MOLECULE
P15
   48    47     1     0     0
SMALL
bcc


@<TRIPOS>ATOM
      1 C13         0.0630   -1.5660   -1.5080 c3        1 P15      0.117700
      2 O6          0.4380   -1.0270   -0.2520 os        1 P15     -0.425600
      3 C12         0.7470    0.3640   -0.3220 c3        1 P15      0.123400
      4 C11         1.2810    0.7590    1.0500 c3        1 P15      0.127400
      5 O5          2.6700    1.0340    0.8800 os        1 P15     -0.429600
      6 C10         3.3340    1.2500    2.1230 c3        1 P15      0.127400
      7 C9          4.7510    1.7000    1.7850 c3        1 P15      0.127400
      8 O4          4.8190    3.0910    2.0900 os        1 P15     -0.429600
      9 C8          6.0490    3.6780    1.6690 c3        1 P15      0.127400
     10 C7          6.0600    5.1010    2.2160 c3        1 P15      0.127400
     11 O3          6.9960    5.1150    3.2910 os        1 P15     -0.429600
     12 C6          6.9810    6.3500    4.0040 c3        1 P15      0.127400
     13 C5          8.1330    6.2880    5.0020 c3        1 P15      0.127400
     14 O2          9.1500    7.1540    4.5010 os        1 P15     -0.428600
     15 C4         10.3580    7.0580    5.2510 c3        1 P15      0.127400
     16 C3         11.2840    8.1490    4.7220 c3        1 P15      0.128400
     17 O1         11.3290    9.1630    5.7240 os        1 P15     -0.438600
     18 C2         12.0250   10.3280    5.2850 c3        1 P15      0.087400
     19 C1         12.0410   11.2840    6.4730 c3        1 P15      0.131400
     20 OXT        12.8170   10.7780    7.5390 oh        1 P15     -0.600800
     21 H131        0.9000   -1.4720   -2.2440 h1        1 P15      0.032700
     22 H132       -0.1540   -2.6430   -1.2960 h1        1 P15      0.032700
     23 H133       -0.8490   -1.0520   -1.9010 h1        1 P15      0.032700
     24 H121        1.5150    0.5510   -1.1190 h1        1 P15      0.042700
     25 H122       -0.1890    0.9360   -0.5600 h1        1 P15      0.042700
     26 H111        1.1370   -0.0740    1.7880 h1        1 P15      0.043200
     27 H112        0.7660    1.6840    1.4220 h1        1 P15      0.043200
     28 H101        3.3560    0.2890    2.7010 h1        1 P15      0.043700
     29 H102        2.7980    2.0360    2.7180 h1        1 P15      0.043700
     30 H91         5.4980    1.1480    2.4140 h1        1 P15      0.043700
     31 H92         4.9750    1.5300    0.6980 h1        1 P15      0.043700
     32 H81         6.0860    3.6890    0.5480 h1        1 P15      0.043200
     33 H82         6.9170    3.0900    2.0700 h1        1 P15      0.043200
     34 H71         6.3980    5.8220    1.4250 h1        1 P15      0.043700
     35 H72         5.0410    5.3950    2.5830 h1        1 P15      0.043700
     36 H61         7.1130    7.2100    3.2950 h1        1 P15      0.043700
     37 H62         6.0020    6.4530    4.5430 h1        1 P15      0.043700
     38 H51         7.7990    6.6570    6.0080 h1        1 P15      0.044200
     39 H52         8.5240    5.2400    5.0930 h1        1 P15      0.044200
     40 H41        10.1500    7.2060    6.3440 h1        1 P15      0.043200
     41 H42        10.8140    6.0460    5.0880 h1        1 P15      0.043200
     42 H31        12.3180    7.7430    4.5640 h1        1 P15      0.045200
     43 H32        10.8910    8.5710    3.7590 h1        1 P15      0.045200
     44 H21        11.4880   10.7880    4.4150 h1        1 P15      0.039200
     45 H22        13.0700   10.0520    4.9820 h1        1 P15      0.039200
     46 H11        12.5390   12.2460    6.1800 h1        1 P15      0.053200
     47 H12        10.9920   11.4830    6.8190 h1        1 P15      0.053200
     48 HOXT       12.4490    9.9150    7.7690 ho        1 P15      0.412000
@<TRIPOS>BOND
     1    1    2 1   
     2    1   21 1   
     3    1   22 1   
     4    1   23 1   
     5    2    3 1   
     6    3    4 1   
     7    3   24 1   
     8    3   25 1   
     9    4    5 1   
    10    4   26 1   
    11    4   27 1   
    12    5    6 1   
    13    6    7 1   
    14    6   28 1   
    15    6   29 1   
    16    7    8 1   
    17    7   30 1   
    18    7   31 1   
    19    8    9 1   
    20    9   10 1   
    21    9   32 1   
    22    9   33 1   
    23   10   11 1   
    24   10   34 1   
    25   10   35 1   
    26   11   12 1   
    27   12   13 1   
    28   12   36 1   
    29   12   37 1   
    30   13   14 1   
    31   13   38 1   
    32   13   39 1   
    33   14   15 1   
    34   15   16 1   
    35   15   40 1   
    36   15   41 1   
    37   16   17 1   
    38   16   42 1   
    39   16   43 1   
    40   17   18 1   
    41   18   19 1   
    42   18   44 1   
    43   18   45 1   
    44   19   20 1   
    45   19   46 1   
    46   19   47 1   
    47   20   48 1   
@<TRIPOS>SUBSTRUCTURE
     1 P15         1 TEMP              0 ****  ****    0 ROOT
