@<TRIPOS>MOLECULE
P16
   45    48     1     0     0
SMALL
bcc


@<TRIPOS>ATOM
      1 O1          1.2660   -0.6560   -0.7860 oh        1 P16     -0.597800
      2 C2          1.6260    0.5200   -0.0760 c3        1 P16      0.176700
      3 C3          1.8620    0.1810    1.3600 ca        1 P16     -0.076300
      4 C4          1.8550   -1.1390    1.8170 ca        1 P16     -0.104000
      5 C5          2.0860   -1.4050    3.1640 ca        1 P16     -0.125000
      6 C6          2.3230   -0.3730    4.0690 ca        1 P16     -0.101000
      7 C7          2.3410    0.9620    3.6170 ca        1 P16      0.125600
      8 N9          2.5080    2.0420    4.5180 nh        1 P16     -0.708300
      9 C10         3.6630    2.2030    5.2960 ca        1 P16      0.919900
     10 N11         4.5100    1.1010    5.4950 nb        1 P16     -0.748000
     11 C12         5.5410    1.2980    6.3080 ca        1 P16      0.516200
     12 C13         5.8160    2.5250    6.9600 ca        1 P16     -0.419400
     13 C16         6.9280    2.7130    7.8330 cc        1 P16      0.028800
     14 C17         7.1430    3.9150    8.4230 cd        1 P16     -0.156400
     15 C18         6.2360    5.0530    8.1760 c         1 P16      0.717700
     16 O21         6.3830    6.1780    8.6850 o         1 P16     -0.606500
     17 N19         5.1310    4.8480    7.3070 n         1 P16     -0.424300
     18 C14         4.9120    3.6120    6.6990 ca        1 P16      0.624200
     19 N15         3.8400    3.4510    5.8540 nb        1 P16     -0.809000
     20 C20         4.2210    5.9420    7.0500 c3        1 P16      0.070300
     21 C22         8.2720    4.1470    9.3250 ca        1 P16     -0.022800
     22 C27         9.5090    4.5980    8.8330 ca        1 P16      0.045400
     23 CL28        9.7270    4.8770    7.1700 cl        1 P16     -0.079900
     24 C26        10.5870    4.8270    9.6940 ca        1 P16     -0.128000
     25 C25        10.4390    4.6040   11.0610 ca        1 P16     -0.107000
     26 C24         9.2240    4.1540   11.5720 ca        1 P16     -0.128000
     27 C23         8.1490    3.9260   10.7080 ca        1 P16      0.045400
     28 CL29        6.6810    3.3730   11.3660 cl        1 P16     -0.079900
     29 C8          2.1070    1.2290    2.2510 ca        1 P16     -0.162000
     30 HO1         1.1380   -0.3880   -1.7030 ho        1 P16      0.405000
     31 H21         2.5640    0.9570   -0.5190 h1        1 P16      0.032700
     32 H22         0.7990    1.2780   -0.1590 h1        1 P16      0.032700
     33 H4          1.6630   -1.9590    1.1070 ha        1 P16      0.157000
     34 H5          2.0780   -2.4460    3.5240 ha        1 P16      0.138000
     35 H6          2.4970   -0.6090    5.1300 ha        1 P16      0.153000
     36 HN9         2.0500    2.8890    4.2460 hn        1 P16      0.446800
     37 H12         6.2080    0.4280    6.4610 h4        1 P16      0.033100
     38 H16         7.6010    1.8580    8.0110 ha        1 P16      0.148000
     39 H201        4.2190    6.1890    5.9550 h1        1 P16      0.063700
     40 H202        3.1810    5.6550    7.3630 h1        1 P16      0.063700
     41 H203        4.5430    6.8480    7.6310 h1        1 P16      0.063700
     42 H26        11.5470    5.1850    9.2940 ha        1 P16      0.152000
     43 H25        11.2840    4.7880   11.7410 ha        1 P16      0.143000
     44 H24         9.1090    3.9820   12.6540 ha        1 P16      0.152000
     45 H8          2.1120    2.2640    1.8750 ha        1 P16      0.131000
@<TRIPOS>BOND
     1    1    2 1
     2    1   30 1
     3    2    3 1
     4    2   31 1
     5    2   32 1
     6    3    4 ar
     7    3   29 ar
     8    4    5 ar
     9    4   33 1
    10    5    6 ar
    11    5   34 1
    12    6    7 ar
    13    6   35 1
    14    7    8 1
    15    7   29 ar
    16    8    9 1
    17    8   36 1
    18    9   10 ar
    19    9   19 ar
    20   10   11 ar
    21   11   12 ar
    22   11   37 1
    23   12   13 1
    24   12   18 ar
    25   13   14 2
    26   13   38 1
    27   14   15 1
    28   14   21 1
    29   15   16 2
    30   15   17 1
    31   17   18 1
    32   17   20 1
    33   18   19 ar
    34   20   39 1
    35   20   40 1
    36   20   41 1
    37   21   22 ar
    38   21   27 ar
    39   22   23 1
    40   22   24 ar
    41   24   25 ar
    42   24   42 1
    43   25   26 ar
    44   25   43 1
    45   26   27 ar
    46   26   44 1
    47   27   28 1
    48   29   45 1
@<TRIPOS>SUBSTRUCTURE
     1 P16         1 TEMP              0 ****  ****    0 ROOT
