@<TRIPOS>MOLECULE
P17
   45    48     1     0     0
SMALL
bcc


@<TRIPOS>ATOM
      1 S2          0.2110    0.9910   -0.3880 ss        1 P17      0.258000
      2 C3          1.7510    0.3040   -0.2990 c2        1 P17     -0.298000
      3 C8          2.1030   -0.4160    0.7980 c2        1 P17     -0.149000
      4 C7          3.3990   -1.1720    0.8750 c3        1 P17      0.036000
      5 N9          4.1410   -0.9710    2.1090 nh        1 P17     -0.254000
      6 C10         3.6590   -1.4800    3.3250 c2        1 P17      0.194000
      7 N15         4.1860   -0.9200    4.4690 n2        1 P17     -0.273000
      8 C14         3.8310   -1.4940    5.6650 c2        1 P17      0.215000
      9 N19         4.3500   -0.9840    6.8560 n         1 P17     -0.232000
     10 C20         5.2520    0.1480    6.8150 c3        1 P17     -0.087000
     11 C18         4.0160   -1.5610    8.1060 c2        1 P17      0.360000
     12 O21         4.5320   -1.0780    9.1330 o         1 P17     -0.357000
     13 C17         3.0740   -2.6970    8.1240 c2        1 P17     -0.172000
     14 C22         2.7110   -3.2620    9.4190 c2        1 P17      0.004000
     15 C27         3.8350   -3.7030   10.3040 c3        1 P17     -0.049000
     16 C26         3.4270   -4.2280   11.6320 c2        1 P17     -0.086000
     17 C25         2.1270   -4.3750   11.9720 c2        1 P17     -0.198000
     18 C24         1.0920   -4.1840   11.0080 c1        1 P17     -0.003000
     19 C23         1.4210   -3.4120    9.8460 c2        1 P17     -0.118000
     20 CL2         4.8260   -4.9240    9.4850 cl        1 P17     -0.080000
     21 C16         2.5610   -3.1850    6.9620 c2        1 P17      0.032000
     22 C13         2.9250   -2.6110    5.7120 c2        1 P17     -0.275000
     23 C12         2.4250   -3.0750    4.4700 c2        1 P17      0.060000
     24 N11         2.7520   -2.5510    3.2950 n2        1 P17     -0.234000
     25 C6          4.2870   -0.9580   -0.3220 c2        1 P17     -0.087000
     26 C5          3.8830   -0.2210   -1.3800 c2        1 P17     -0.196000
     27 C4          2.6940    0.5660   -1.3440 c1        1 P17     -0.049000
     28 C1          0.1800    1.9040   -1.8860 c3        1 P17     -0.365000
     29 H10         1.4410   -0.5060    1.6730 ha        1 P17      0.153000
     30 H1          4.6030   -0.0850    2.1710 hn        1 P17      0.236000
     31 H4          6.1650   -0.1150    6.2170 h1        1 P17      0.106333
     32 H5          4.7380    1.0250    6.3380 h1        1 P17      0.106333
     33 H6          5.5610    0.4250    7.8580 h1        1 P17      0.106333
     34 H7          4.5200   -2.8130   10.4630 h1        1 P17      0.194000
     35 H8          4.2520   -4.5080   12.3080 ha        1 P17      0.151000
     36 H9          1.8260   -4.7250   12.9730 ha        1 P17      0.164000
     37 H3          1.8550   -4.0340    6.9630 ha        1 P17      0.158000
     38 H2          1.7120   -3.9230    4.4420 h4        1 P17      0.176000
     39 H16         3.1010   -2.2770    0.8090 h1        1 P17      0.174000
     40 H15         5.2680   -1.4600   -0.2920 ha        1 P17      0.147000
     41 H14         4.5030   -0.1470   -2.2890 ha        1 P17      0.157000
     42 H11         1.2050    2.1450   -2.2580 h1        1 P17      0.119333
     43 H12        -0.3580    1.3310   -2.6740 h1        1 P17      0.119333
     44 H13        -0.3730    2.8480   -1.6790 h1        1 P17      0.119333
     45 CL1         0.1000   -2.7850    8.9810 cl        1 P17      0.014000
@<TRIPOS>BOND
     1    1    2 1   
     2    1   28 1   
     3    2    3 1   
     4    2   27 1   
     5    3    4 1   
     6    3   29 1   
     7    4    5 1   
     8    4   25 1   
     9    4   39 1   
    10    5    6 1   
    11    5   30 1   
    12    6    7 1   
    13    6   24 1   
    14    7    8 1   
    15    8    9 1   
    16    8   22 1   
    17    9   10 1   
    18    9   11 1   
    19   10   31 1   
    20   10   32 1   
    21   10   33 1   
    22   11   12 1   
    23   11   13 1   
    24   13   14 1   
    25   13   21 1   
    26   14   15 1   
    27   14   19 1   
    28   15   16 1   
    29   15   20 1   
    30   15   34 1   
    31   16   17 1   
    32   16   35 1   
    33   17   18 1   
    34   17   36 1   
    35   18   19 1   
    36   19   45 1   
    37   21   22 1   
    38   21   37 1   
    39   22   23 1   
    40   23   24 1   
    41   23   38 1   
    42   25   26 1   
    43   25   40 1   
    44   26   27 1   
    45   26   41 1   
    46   28   42 1   
    47   28   43 1   
    48   28   44 1   
@<TRIPOS>SUBSTRUCTURE
     1 P17         1 TEMP              0 ****  ****    0 ROOT
