@<TRIPOS>MOLECULE
molecule
   21    21     1     0     0
SMALL
bcc


@<TRIPOS>ATOM
      1 O            0.0000     0.0000     0.0000 o          1 P18      -0.534100
      2 C            1.2130     0.0000     0.0000 c          1 P18       0.580700
      3 C1           1.9670     0.0000     1.3050 c3         1 P18      -0.178400
      4 C2           0.9730    -0.0020     2.4680 c3         1 P18       0.148400
      5 C3           1.9480    -0.0050    -1.2750 ca         1 P18      -0.180600
      6 C8           1.2520    -0.0110    -2.4880 ca         1 P18      -0.078500
      7 C7           1.9490    -0.0150    -3.6780 ca         1 P18      -0.143500
      8 C4           3.3470     0.0010    -1.2790 ca         1 P18      -0.078500
      9 C5           4.0280    -0.0030    -2.4780 ca         1 P18      -0.143500
     10 C6           3.3330    -0.0140    -3.6740 ca         1 P18      -0.098000
     11 OXT          1.6870    -0.0020     3.7060 oh         1 P18      -0.618800
     12 H11C         2.5890     0.8850     1.3630 hc         1 P18       0.077700
     13 H12C         2.5910    -0.8840     1.3620 hc         1 P18       0.077700
     14 H21C         0.3490     0.8820     2.4110 h1         1 P18       0.034700
     15 H22C         0.3510    -0.8870     2.4100 h1         1 P18       0.034700
     16 HXT          1.0740    -0.0030     4.4220 ho         1 P18       0.407000
     17 H8           0.1690    -0.0110    -2.4930 ha         1 P18       0.144500
     18 H4           3.8930     0.0100    -0.3440 ha         1 P18       0.144500
     19 H7           1.4110    -0.0220    -4.6190 ha         1 P18       0.135000
     20 H6           3.8750    -0.0180    -4.6120 ha         1 P18       0.132000
     21 H5           5.1120    -0.0000    -2.4830 ha         1 P18       0.135000
@<TRIPOS>BOND
     1     1     2 2
     2     2     3 1
     3     2     5 1
     4     3     4 1
     5     4    11 1
     6     5     6 ar
     7     5     8 ar
     8     6     7 ar
     9     7    10 ar
    10     8     9 ar
    11     9    10 ar
    12     3    12 1
    13     3    13 1
    14     4    14 1
    15     4    15 1
    16    11    16 1
    17     6    17 1
    18     8    18 1
    19     7    19 1
    20    10    20 1
    21     9    21 1
@<TRIPOS>SUBSTRUCTURE
     1 P18         1 TEMP              0 ****  ****    0 ROOT
