@<TRIPOS>MOLECULE
molecule
   37    40     1     0     0
SMALL
bcc


@<TRIPOS>ATOM
      1 N01          0.0000     0.0000     0.0000 nc         1 P19      -0.599100
      2 C02          1.3120     0.0000     0.0000 cd         1 P19       0.435500
      3 C03          1.7650     0.0000     1.3150 cd         1 P19      -0.397600
      4 C04          0.6540     0.0000     2.1390 cc         1 P19       0.480500
      5 N05         -0.4510     0.0010     1.3230 na         1 P19      -0.171600
      6 N06          0.4900    -0.0000     3.4720 nc         1 P19      -0.827000
      7 C07         -0.7260     0.0000     3.9890 cd         1 P19       0.984900
      8 N08         -1.8100     0.0010     3.2050 nd         1 P19      -0.882000
      9 C09         -1.6960     0.0010     1.8920 cc         1 P19       0.892400
     10 N10         -2.8170     0.0020     1.1000 nu         1 P19      -0.744300
     11 C11         -4.0830    -0.1150     1.6820 ca         1 P19       0.145600
     12 C12         -5.1690     0.5490     1.1250 ca         1 P19      -0.135500
     13 C13         -6.4180     0.4320     1.7020 ca         1 P19      -0.113000
     14 C14         -6.5900    -0.3470     2.8320 ca         1 P19      -0.138000
     15 C15         -5.5110    -1.0100     3.3870 ca         1 P19      -0.113000
     16 C16         -4.2600    -0.9000     2.8130 ca         1 P19      -0.135500
     17 N17         -0.8800     0.0010     5.3620 nu         1 P19      -0.743300
     18 C18          0.2380     0.1200     6.1920 ca         1 P19       0.153600
     19 C19          1.3160     0.9030     5.7980 ca         1 P19      -0.139500
     20 C20          2.4200     1.0180     6.6200 ca         1 P19      -0.112500
     21 C21          2.4530     0.3570     7.8340 ca         1 P19      -0.145000
     22 C22          1.3810    -0.4230     8.2290 ca         1 P19      -0.112500
     23 C23          0.2720    -0.5380     7.4150 ca         1 P19      -0.139500
     24 H02          1.9420    -0.0000    -0.8820 h4         1 P19       0.060800
     25 H03          2.8000    -0.0000     1.6350 ha         1 P19       0.173000
     26 HN10        -2.7270     0.0540     0.1040 hn         1 P19       0.481800
     27 H12         -5.0360     1.1600     0.2400 ha         1 P19       0.145500
     28 H13         -7.2650     0.9500     1.2680 ha         1 P19       0.134500
     29 H14         -7.5700    -0.4360     3.2830 ha         1 P19       0.132000
     30 H15         -5.6490    -1.6200     4.2720 ha         1 P19       0.134500
     31 H16         -3.4150    -1.4200     3.2500 ha         1 P19       0.145500
     32 HN17        -1.7950    -0.0660     5.7630 hn         1 P19       0.466800
     33 H19          1.2910     1.4210     4.8470 ha         1 P19       0.145000
     34 H20          3.2610     1.6280     6.3140 ha         1 P19       0.131500
     35 H21          3.3210     0.4480     8.4750 ha         1 P19       0.129000
     36 H22          1.4090    -0.9380     9.1820 ha         1 P19       0.131500
     37 H23         -0.5670    -1.1490     7.7260 ha         1 P19       0.145000
@<TRIPOS>BOND
     1     1     2 2
     2     1     5 1
     3     2     3 1
     4     2    24 1
     5     3     4 2
     6     3    25 1
     7     4     6 1
     8     4     5 1
     9     5     9 1
    10     6     7 2
    11     7    17 1
    12     7     8 1
    13     8     9 2
    14     9    10 1
    15    10    11 1
    16    10    26 1
    17    11    12 ar
    18    11    16 ar
    19    12    13 ar
    20    12    27 1
    21    13    14 ar
    22    13    28 1
    23    14    15 ar
    24    14    29 1
    25    15    16 ar
    26    15    30 1
    27    16    31 1
    28    17    18 1
    29    17    32 1
    30    18    23 ar
    31    18    19 ar
    32    19    20 ar
    33    19    33 1
    34    20    21 ar
    35    20    34 1
    36    21    22 ar
    37    21    35 1
    38    22    23 ar
    39    22    36 1
    40    23    37 1
@<TRIPOS>SUBSTRUCTURE
     1 P19         1 TEMP              0 ****  ****    0 ROOT
