@<TRIPOS>MOLECULE
P1B
   45    47     1     0     0
SMALL
bcc


@<TRIPOS>ATOM
      1 O4           0.0000     0.0000     0.0000 o          1 P1B      -0.605500
      2 C4           1.2120     0.0000     0.0000 c          1 P1B       0.612500
      3 N3           1.9350     0.0000     1.1080 ns         1 P1B      -0.166500
      4 C5           2.0380    -0.0080    -1.2680 c3         1 P1B      -0.023600
      5 S1           3.7520    -0.0070    -0.6410 ss         1 P1B      -0.315700
      6 C2           3.2690    -0.0010     1.0650 c          1 P1B       0.675100
      7 O2           4.0180    -0.0010     2.0220 o          1 P1B      -0.567500
      8 C6           1.7650     1.2460    -2.0990 c3         1 P1B       0.068900
      9 C21         10.1750     1.5190    -8.9080 ca         1 P1B      -0.063000
     10 C7           2.5050     1.1520    -3.4090 ca         1 P1B      -0.163300
     11 C12          1.8960     0.5720    -4.5070 ca         1 P1B      -0.045000
     12 C11          2.5730     0.4840    -5.7080 ca         1 P1B      -0.176500
     13 C10          3.8640     0.9790    -5.8120 ca         1 P1B       0.165100
     14 C9           4.4740     1.5600    -4.7090 ca         1 P1B      -0.176500
     15 C8           3.7910     1.6510    -3.5120 ca         1 P1B      -0.045000
     16 O13          4.5320     0.8940    -6.9920 os         1 P1B      -0.308900
     17 C14          5.8590     1.4240    -7.0270 c3         1 P1B       0.201400
     18 C15          6.4460     1.2390    -8.4270 c3         1 P1B      -0.071700
     19 C24         11.9910     4.0920    -9.9000 c3         1 P1B       0.008900
     20 C20         10.3590     2.8360    -8.5180 ca         1 P1B      -0.209600
     21 C19          9.2650     3.5790    -8.1160 ca         1 P1B       0.408200
     22 N18          8.0580     3.0470    -8.1000 nb         1 P1B      -0.576000
     23 C22          8.8910     0.9940    -8.8780 ca         1 P1B      -0.208300
     24 C17          7.8450     1.7980    -8.4640 ca         1 P1B       0.366600
     25 H3           1.4720     0.0010     1.9950 hn         1 P1B       0.197500
     26 H5           1.8430    -0.9060    -1.8420 h1         1 P1B       0.097700
     27 H61C         2.1020     2.1200    -1.5560 hc         1 P1B       0.036700
     28 H62C         0.7020     1.3280    -2.2910 hc         1 P1B       0.036700
     29 H21         11.0140     0.9130    -9.2280 ha         1 P1B       0.112000
     30 H22          8.7110    -0.0320    -9.1760 ha         1 P1B       0.117000
     31 H12          0.8870     0.1850    -4.4240 ha         1 P1B       0.111000
     32 H8           4.2660     2.1040    -2.6510 ha         1 P1B       0.111000
     33 H11          2.0950     0.0300    -6.5670 ha         1 P1B       0.122500
     34 H9           5.4820     1.9500    -4.7880 ha         1 P1B       0.122500
     35 H141         5.8330     2.4790    -6.7830 h1         1 P1B       0.012700
     36 H142         6.4760     0.9010    -6.3050 h1         1 P1B       0.012700
     37 H151         5.8300     1.7610    -9.1490 hc         1 P1B       0.030700
     38 H152         6.4720     0.1840    -8.6720 hc         1 P1B       0.030700
     39 H241        11.1570     4.7310   -10.1620 hc         1 P1B       0.004033
     40 H242        12.8980     4.6830    -9.8480 hc         1 P1B       0.004033
     41 H243        12.1050     3.3210   -10.6520 hc         1 P1B       0.004033
     42 H231        11.7990     4.2090    -7.7620 hc         1 P1B       0.018200
     43 H232        12.4750     2.6840    -8.3490 hc         1 P1B       0.018200
     44 H19          9.4000     4.6090    -7.8100 h4         1 P1B      -0.015900
     45 C23         11.7340     3.4520    -8.5330 c3         1 P1B       0.036900
@<TRIPOS>BOND
     1     1     2 2   
     2     2     3 1   
     3     2     4 1   
     4     3     6 1   
     5     3    25 1   
     6     4     5 1   
     7     4     8 1   
     8     4    26 1   
     9     5     6 1   
    10     6     7 2   
    11     8    10 1   
    12     8    27 1   
    13     8    28 1   
    14     9    20 ar  
    15     9    23 ar  
    16     9    29 1   
    17    10    11 ar  
    18    10    15 ar  
    19    11    12 ar  
    20    11    31 1   
    21    12    13 ar  
    22    12    33 1   
    23    13    14 ar  
    24    13    16 1   
    25    14    15 ar  
    26    14    34 1   
    27    15    32 1   
    28    16    17 1   
    29    17    18 1   
    30    17    35 1   
    31    17    36 1   
    32    18    24 1   
    33    18    37 1   
    34    18    38 1   
    35    19    39 1   
    36    19    40 1   
    37    19    41 1   
    38    19    45 1   
    39    20    21 ar  
    40    20    45 1   
    41    21    22 ar  
    42    21    44 1   
    43    22    24 ar  
    44    23    24 ar  
    45    23    30 1   
    46    42    45 1   
    47    43    45 1   
@<TRIPOS>SUBSTRUCTURE
     1 P1B         1 TEMP              0 ****  ****    0 ROOT
