@<TRIPOS>MOLECULE
molecule
   45    47     1     0     0
SMALL
bcc


@<TRIPOS>ATOM
      1 O4           0.0000     0.0000     0.0000 o          1 P1B      -0.574500
      2 C4           1.2120     0.0000     0.0000 c          1 P1B       0.702500
      3 N3           1.9350     0.0000     1.1080 ns         1 P1B      -0.584500
      4 C5           2.0380    -0.0080    -1.2680 c3         1 P1B      -0.065600
      5 S1           3.7520    -0.0070    -0.6410 ss         1 P1B      -0.244700
      6 C2           3.2690    -0.0010     1.0650 c          1 P1B       0.739100
      7 O2           4.0180    -0.0010     2.0220 o          1 P1B      -0.544500
      8 C6           1.7650     1.2460    -2.0990 c3         1 P1B      -0.005100
      9 C21         10.1750     1.5190    -8.9080 ca         1 P1B      -0.089000
     10 C7           2.5050     1.1520    -3.4090 ca         1 P1B      -0.147300
     11 C12          1.8960     0.5720    -4.5070 ca         1 P1B      -0.078500
     12 C11          2.5730     0.4840    -5.7080 ca         1 P1B      -0.190000
     13 C10          3.8640     0.9790    -5.8120 ca         1 P1B       0.155100
     14 C9           4.4740     1.5600    -4.7090 ca         1 P1B      -0.190000
     15 C8           3.7910     1.6510    -3.5120 ca         1 P1B      -0.078500
     16 O13          4.5320     0.8940    -6.9920 os         1 P1B      -0.334900
     17 C14          5.8590     1.4240    -7.0270 c3         1 P1B       0.141400
     18 C15          6.4460     1.2390    -8.4270 c3         1 P1B      -0.122700
     19 C24         11.9910     4.0920    -9.9000 c3         1 P1B      -0.088100
     20 C20         10.3590     2.8360    -8.5180 ca         1 P1B      -0.205600
     21 C19          9.2650     3.5790    -8.1160 ca         1 P1B       0.425200
     22 N18          8.0580     3.0470    -8.1000 nb         1 P1B      -0.692000
     23 C22          8.8910     0.9940    -8.8780 ca         1 P1B      -0.240300
     24 C17          7.8450     1.7980    -8.4640 ca         1 P1B       0.416600
     25 H3           1.4720     0.0010     1.9950 hn         1 P1B       0.349500
     26 H5           1.8430    -0.9060    -1.8420 h1         1 P1B       0.124700
     27 H61C         2.1020     2.1200    -1.5560 hc         1 P1B       0.069700
     28 H62C         0.7020     1.3280    -2.2910 hc         1 P1B       0.069700
     29 H21         11.0140     0.9130    -9.2280 ha         1 P1B       0.140000
     30 H22          8.7110    -0.0320    -9.1760 ha         1 P1B       0.141000
     31 H12          0.8870     0.1850    -4.4240 ha         1 P1B       0.138500
     32 H8           4.2660     2.1040    -2.6510 ha         1 P1B       0.138500
     33 H11          2.0950     0.0300    -6.5670 ha         1 P1B       0.144500
     34 H9           5.4820     1.9500    -4.7880 ha         1 P1B       0.144500
     35 H141         5.8330     2.4790    -6.7830 h1         1 P1B       0.048200
     36 H142         6.4760     0.9010    -6.3050 h1         1 P1B       0.048200
     37 H151         5.8300     1.7610    -9.1490 hc         1 P1B       0.067200
     38 H152         6.4720     0.1840    -8.6720 hc         1 P1B       0.067200
     39 H241        11.1570     4.7310   -10.1620 hc         1 P1B       0.038033
     40 H242        12.8980     4.6830    -9.8480 hc         1 P1B       0.038033
     41 H243        12.1050     3.3210   -10.6520 hc         1 P1B       0.038033
     42 H231        11.7990     4.2090    -7.7620 hc         1 P1B       0.050200
     43 H232        12.4750     2.6840    -8.3490 hc         1 P1B       0.050200
     44 H19          9.4000     4.6090    -7.8100 h4         1 P1B       0.025100
     45 C23         11.7340     3.4520    -8.5330 c3         1 P1B      -0.036100
@<TRIPOS>BOND
     1     1     2 2
     2     2     3 1
     3     2     4 1
     4     3     6 1
     5     4     5 1
     6     4     8 1
     7     5     6 1
     8     6     7 2
     9     8    10 1
    10     9    20 ar
    11     9    23 ar
    12    10    11 ar
    13    10    15 ar
    14    11    12 ar
    15    12    13 ar
    16    13    14 ar
    17    13    16 1
    18    14    15 ar
    19    16    17 1
    20    17    18 1
    21    18    24 1
    22    19    45 1
    23    45    20 1
    24    20    21 ar
    25    21    22 ar
    26    22    24 ar
    27    23    24 ar
    28     3    25 1
    29     4    26 1
    30     8    27 1
    31     8    28 1
    32     9    29 1
    33    23    30 1
    34    11    31 1
    35    15    32 1
    36    12    33 1
    37    14    34 1
    38    17    35 1
    39    17    36 1
    40    18    37 1
    41    18    38 1
    42    19    39 1
    43    19    40 1
    44    19    41 1
    45    45    42 1
    46    45    43 1
    47    21    44 1
@<TRIPOS>SUBSTRUCTURE
     1 P1B         1 TEMP              0 ****  ****    0 ROOT
