@<TRIPOS>MOLECULE
P1C
   42    43     1     0     0
SMALL
bcc


@<TRIPOS>ATOM
      1 C1           0.0000     0.0000     0.0000 c          1 P1C       0.956600
      2 C2           1.5060     0.0000     0.0000 c3         1 P1C      -0.199500
      3 C3           2.0170     0.0000     1.4410 c3         1 P1C      -0.028400
      4 C4           3.5460    -0.0000     1.4420 c3         1 P1C      -0.033400
      5 C7           4.0580    -0.0010     2.8830 c3         1 P1C      -0.091400
      6 C10          5.5640    -0.0000     2.8840 c          1 P1C       0.570100
      7 N11          6.2380    -0.0020     4.0500 ns         1 P1C      -0.129900
      8 C12          7.7040    -0.0010     4.0490 cy         1 P1C      -0.083300
      9 C13          8.3290    -1.2210     4.6840 c          1 P1C       0.609500
     10 N14          1.9960    -1.1990    -0.6930 nz         1 P1C       0.082400
     11 O15          6.1700    -0.0000     1.8330 o          1 P1C      -0.675100
     12 C16          8.3320     0.6900     5.2470 cy         1 P1C       0.062800
     13 O18          8.5250    -2.3430     4.2690 o          1 P1C      -0.576500
     14 O19         -0.6710     1.1620     0.0000 o          1 P1C      -0.825300
     15 O20         -0.6040    -1.0460    -0.0000 o          1 P1C      -0.825300
     16 N29          8.5890    -0.6450     5.8510 nj         1 P1C       0.017000
     17 C30          8.8730    -0.9250     7.1940 ce         1 P1C      -0.121600
     18 C31          9.4380    -2.2300     7.5800 c          1 P1C       0.974800
     19 C32          8.6260    -0.0010     8.1140 c2         1 P1C      -0.214400
     20 C33          8.9090    -0.3940     9.5410 c3         1 P1C       0.053100
     21 C37          8.0950     1.3770     7.9040 c3         1 P1C       0.177900
     22 O42          9.7080    -2.4910     8.8750 o          1 P1C      -0.855300
     23 O43          9.6610    -3.0710     6.7320 o          1 P1C      -0.855300
     24 S            7.1810     1.5540     6.3650 ss         1 P1C      -0.446200
     25 H2           1.8670     0.8850    -0.5110 hx         1 P1C       0.087700
     26 H3C1         1.6560    -0.8840     1.9520 hc         1 P1C       0.052200
     27 H3C2         1.6560     0.8850     1.9520 hc         1 P1C       0.052200
     28 H4C1         3.9070     0.8850     0.9310 hc         1 P1C       0.017700
     29 H4C2         3.9070    -0.8840     0.9300 hc         1 P1C       0.017700
     30 H7C1         3.6980    -0.8860     3.3930 hc         1 P1C       0.036700
     31 H7C2         3.6970     0.8830     3.3950 hc         1 P1C       0.036700
     32 H11          5.7390    -0.0370     4.9160 hn         1 P1C       0.202500
     33 H12          8.1640     0.2740     3.1080 h1         1 P1C       0.088700
     34 H141         2.9330    -1.0440    -1.0060 hn         1 P1C       0.212467
     35 H142         1.9790    -1.9770    -0.0640 hn         1 P1C       0.212467
     36 H16          9.2390     1.2360     5.0160 h2         1 P1C       0.069700
     37 H331         8.3210    -1.2670     9.7990 hc         1 P1C       0.021700
     38 H332         8.6460     0.4250    10.2000 hc         1 P1C       0.021700
     39 H333         9.9620    -0.6220     9.6510 hc         1 P1C       0.021700
     40 H371         7.4360     1.6240     8.7290 h1         1 P1C       0.045200
     41 H372         8.9260     2.0710     7.8960 h1         1 P1C       0.045200
     42 H143         1.4040    -1.3970    -1.4750 hn         1 P1C       0.212467
@<TRIPOS>BOND
     1     1     2 1   
     2     1    14 1   
     3     1    15 1   
     4     2     3 1   
     5     2    10 1   
     6     2    25 1   
     7     3     4 1   
     8     3    26 1   
     9     3    27 1   
    10     4     5 1   
    11     4    28 1   
    12     4    29 1   
    13     5     6 1   
    14     5    30 1   
    15     5    31 1   
    16     6     7 1   
    17     6    11 2   
    18     7     8 1   
    19     7    32 1   
    20     8     9 1   
    21     8    12 1   
    22     8    33 1   
    23     9    13 2   
    24     9    16 1   
    25    10    34 1   
    26    10    35 1   
    27    10    42 1   
    28    12    16 1   
    29    12    24 1   
    30    12    36 1   
    31    16    17 1   
    32    17    18 1   
    33    17    19 2   
    34    18    22 1   
    35    18    23 1   
    36    19    20 1   
    37    19    21 1   
    38    20    37 1   
    39    20    38 1   
    40    20    39 1   
    41    21    24 1   
    42    21    40 1   
    43    21    41 1   
@<TRIPOS>SUBSTRUCTURE
     1 P1C         1 TEMP              0 ****  ****    0 ROOT
