@<TRIPOS>MOLECULE
P1D
   39    42     1     0     0
SMALL
bcc


@<TRIPOS>ATOM
      1 O3         -0.5000   -1.7940   -1.6240 o         1 P1D     -0.934500
      2 P           0.7200   -2.2480   -0.8700 p5        1 P1D      1.229700
      3 O4          0.5410   -2.7670    0.5240 o         1 P1D     -0.934500
      4 O2          1.6800   -3.0260   -1.7470 o         1 P1D     -0.934500
      5 C1P         1.6380   -0.5800   -0.4760 c3        1 P1D     -0.300600
      6 C1          2.0590    0.5840   -1.3220 c3        1 P1D      0.426900
      7 O3'         0.9820    1.4020   -1.8280 os        1 P1D     -0.453600
      8 O2'         2.8550    0.2660   -2.4770 os        1 P1D     -0.444600
      9 C2'         2.0830    0.4010   -3.6580 c3        1 P1D      0.114100
     10 C3'         0.8820    1.2930   -3.2410 c3        1 P1D      0.109100
     11 C4'        -0.3640    0.5130   -3.7080 c3        1 P1D      0.048100
     12 C5'        -1.3700    1.3820   -4.4420 c3        1 P1D      0.149400
     13 O5'        -2.5350    0.6710   -4.8250 oh        1 P1D     -0.641800
     14 O4'         0.1320   -0.4620   -4.6580 os        1 P1D     -0.427600
     15 C1'         1.3930   -0.9070   -4.1040 c3        1 P1D      0.147400
     16 C9          2.1460   -1.7600   -5.0270 cc        1 P1D     -0.109300
     17 C8          2.5960   -3.0300   -4.5560 cd        1 P1D     -0.046300
     18 N7          3.3000   -3.6730   -5.5500 na        1 P1D     -0.138100
     19 C5          3.3280   -2.8570   -6.6770 cd        1 P1D     -0.300900
     20 C4          2.6060   -1.6330   -6.3710 cc        1 P1D      0.138400
     21 N3          2.4840   -0.6270   -7.3170 nc        1 P1D     -0.536100
     22 C2          3.0420   -0.8620   -8.4840 cd        1 P1D      0.409800
     23 N1          3.7450   -2.0100   -8.8670 n         1 P1D     -0.500400
     24 C6          3.9260   -3.0810   -7.9680 c         1 P1D      0.728100
     25 O6          4.5650   -4.0910   -8.3490 o         1 P1D     -0.718500
     26 H1P1        2.5560   -0.9890   -0.0020 hc        1 P1D      0.034700
     27 H1P2        0.9470   -0.1900    0.3010 hc        1 P1D      0.034700
     28 H1          2.7080    1.3060   -0.7310 h2        1 P1D     -0.017300
     29 H2'         2.7510    0.8370   -4.4360 h1        1 P1D      0.053700
     30 H3'         0.9160    2.3310   -3.6540 h1        1 P1D      0.027700
     31 H4'        -0.8250   -0.0590   -2.8380 h1        1 P1D      0.185700
     32 H5'1       -1.7100    2.2150   -3.7700 h1        1 P1D      0.019200
     33 H5'2       -0.9210    1.8140   -5.3770 h1        1 P1D      0.019200
     34 H5'        -2.3560   -0.2700   -4.6910 ho        1 P1D      0.432000
     35 H1'         1.1450   -1.5240   -3.1630 h1        1 P1D      0.184700
     36 H8          2.4070   -3.4210   -3.5150 h4        1 P1D      0.315000
     37 HN7         3.7260   -4.5600   -5.4960 hn        1 P1D      0.296700
     38 H2          2.9590   -0.0790   -9.2630 h5        1 P1D      0.021800
     39 HN1         4.1170   -2.0850   -9.7810 hn        1 P1D      0.308500
@<TRIPOS>BOND
     1    1    2 1
     2    2    3 1
     3    2    4 1
     4    2    5 1
     5    5    6 1
     6    5   26 1
     7    5   27 1
     8    6    7 1
     9    6    8 1
    10    6   28 1
    11    7   10 1
    12    8    9 1
    13    9   10 1
    14    9   15 1
    15    9   29 1
    16   10   11 1
    17   10   30 1
    18   11   12 1
    19   11   14 1
    20   11   31 1
    21   12   13 1
    22   12   32 1
    23   12   33 1
    24   13   34 1
    25   14   15 1
    26   15   16 1
    27   15   35 1
    28   16   17 2
    29   16   20 1
    30   17   18 1
    31   17   36 1
    32   18   19 1
    33   18   37 1
    34   19   20 2
    35   19   24 1
    36   20   21 1
    37   21   22 2
    38   22   23 1
    39   22   38 1
    40   23   24 1
    41   23   39 1
    42   24   25 2
@<TRIPOS>SUBSTRUCTURE
     1 P1D         1 TEMP              0 ****  ****    0 ROOT
