@<TRIPOS>MOLECULE
P1E
   56    58     1     0     0
SMALL
bcc


@<TRIPOS>ATOM
      1 C4           0.0000     0.0000     0.0000 ca         1 P1E       0.046600
      2 C6           2.0790     0.0000     1.1970 ca         1 P1E       0.025500
      3 C9          -0.1790    -0.6550    -2.3120 ca         1 P1E       0.763900
      4 C13          1.4560    -2.0120    -3.2070 ca         1 P1E       0.588200
      5 F22          2.5680    -3.3410    -5.2550 f          1 P1E      -0.211633
      6 F16          1.7100    -1.7360    -6.6350 f          1 P1E      -0.211633
      7 F21          0.4640    -3.5790    -6.1140 f          1 P1E      -0.211633
      8 C12          0.8350    -1.9400    -4.4370 ca         1 P1E      -0.603900
      9 N14          0.9300    -1.3660    -2.1760 nb         1 P1E      -0.740000
     10 C11         -0.3340    -1.1830    -4.5510 ca         1 P1E       0.640200
     11 N8          -0.9900    -1.0820    -5.7660 nu         1 P1E      -0.478900
     12 C25         -2.2150    -0.2850    -5.8730 c3         1 P1E       0.130500
     13 C28         -3.4460    -1.1360    -5.4970 c3         1 P1E      -0.042400
     14 C31         -4.5800    -0.7120    -6.4490 c3         1 P1E      -0.021400
     15 C27         -3.9980     0.3800    -7.3700 c3         1 P1E      -0.022400
     16 C24         -2.4690     0.1220    -7.3450 c3         1 P1E       0.116500
     17 N26         -1.7300     1.3460    -7.6820 n3         1 P1E      -0.536600
     18 C30         -0.2800     1.1230    -7.6010 c3         1 P1E       0.174100
     19 C29         -2.1120     1.8440    -9.0100 c3         1 P1E       0.174100
     20 N10         -0.8060    -0.5610    -3.4750 nb         1 P1E      -0.763000
     21 N7          -0.7000     0.0010    -1.2100 nu         1 P1E      -0.277300
     22 C5           1.3900     0.0000     0.0000 ca         1 P1E      -0.155000
     23 C3          -0.6910     0.0050     1.2050 ca         1 P1E      -0.155000
     24 C2           0.0050     0.0040     2.3980 ca         1 P1E       0.025500
     25 C1           1.3880    -0.0010     2.3950 ca         1 P1E      -0.178500
     26 S18          2.2710    -0.0010     3.9190 sy         1 P1E       1.043200
     27 O19          1.3910    -0.5450     4.8920 o          1 P1E      -0.588800
     28 O20          3.5540    -0.5450     3.6400 o          1 P1E      -0.588800
     29 N17          2.5170     1.5820     4.3430 n7         1 P1E      -0.582100
     30 C23          1.3730     2.4390     4.6640 c3         1 P1E       0.262100
     31 H6           3.1620    -0.0020     1.1980 ha         1 P1E       0.122500
     32 H13          2.3640    -2.5900    -3.0850 h4         1 P1E      -0.003900
     33 HN8         -0.6550    -1.5930    -6.5590 hn         1 P1E       0.309800
     34 H25         -2.1580     0.5940    -5.2430 h1         1 P1E       0.075700
     35 H28         -3.2240    -2.1880    -5.6320 hc         1 P1E       0.024200
     36 H28A        -3.7320    -0.9390    -4.4710 hc         1 P1E       0.024200
     37 H31         -5.4110    -0.3120    -5.8800 hc         1 P1E       0.016200
     38 H31A        -4.9030    -1.5610    -7.0400 hc         1 P1E       0.016200
     39 H27         -4.3830     0.2700    -8.3760 hc         1 P1E       0.026200
     40 H27A        -4.2210     1.3640    -6.9760 hc         1 P1E       0.026200
     41 H24         -2.2090    -0.6880    -8.0160 h1         1 P1E       0.019700
     42 H30          0.0300     1.1400    -6.5630 h1         1 P1E       0.004867
     43 H30A        -0.0380     0.1610    -8.0350 h1         1 P1E       0.004867
     44 H30B         0.2360     1.9050    -8.1440 h1         1 P1E       0.004867
     45 H29         -1.3750     2.5600    -9.3530 h1         1 P1E       0.004867
     46 H29A        -3.0820     2.3240    -8.9500 h1         1 P1E       0.004867
     47 H29B        -2.1620     1.0150    -9.7060 h1         1 P1E       0.004867
     48 HN7         -1.5680     0.4950    -1.2850 hn         1 P1E       0.296800
     49 H5           1.9320     0.0010    -0.9380 ha         1 P1E       0.127000
     50 H3          -1.7740     0.0090     1.2090 ha         1 P1E       0.127000
     51 H2          -0.5340     0.0060     3.3380 ha         1 P1E       0.122500
     52 HN17         3.4480     1.9410     4.4180 hn         1 P1E       0.346800
     53 H23          0.9970     2.8940     3.7550 h1         1 P1E       0.000700
     54 H23A         0.5910     1.8440     5.1200 h1         1 P1E       0.000700
     55 H23B         1.6850     3.2150     5.3530 h1         1 P1E       0.000700
     56 C15          1.4050    -2.6610    -5.6320 c3         1 P1E       0.667200
@<TRIPOS>BOND
     1     1    21 1   
     2     1    22 ar  
     3     1    23 ar  
     4     2    22 ar  
     5     2    25 ar  
     6     2    31 1   
     7     3     9 ar  
     8     3    20 ar  
     9     3    21 1   
    10     4     8 ar  
    11     4     9 ar  
    12     4    32 1   
    13     5    56 1   
    14     6    56 1   
    15     7    56 1   
    16     8    10 ar  
    17     8    56 1   
    18    10    11 1   
    19    10    20 ar  
    20    11    12 1   
    21    11    33 1   
    22    12    13 1   
    23    12    16 1   
    24    12    34 1   
    25    13    14 1   
    26    13    35 1   
    27    13    36 1   
    28    14    15 1   
    29    14    37 1   
    30    14    38 1   
    31    15    16 1   
    32    15    39 1   
    33    15    40 1   
    34    16    17 1   
    35    16    41 1   
    36    17    18 1   
    37    17    19 1   
    38    18    42 1   
    39    18    43 1   
    40    18    44 1   
    41    19    45 1   
    42    19    46 1   
    43    19    47 1   
    44    21    48 1   
    45    22    49 1   
    46    23    24 ar  
    47    23    50 1   
    48    24    25 ar  
    49    24    51 1   
    50    25    26 1   
    51    26    27 2   
    52    26    28 2   
    53    26    29 1   
    54    29    30 1   
    55    29    52 1   
    56    30    53 1   
    57    30    54 1   
    58    30    55 1   
@<TRIPOS>SUBSTRUCTURE
     1 P1E         1 TEMP              0 ****  ****    0 ROOT
