@<TRIPOS>MOLECULE
molecule
   44    45     1     0     0
SMALL
bcc


@<TRIPOS>ATOM
      1 O17          0.0000     0.0000     0.0000 oh         1 P1F      -0.505100
      2 C6           1.3590     0.0000     0.0000 ca         1 P1F       0.101100
      3 C1           2.0540     0.0000     1.1990 ca         1 P1F      -0.168000
      4 C2           3.4360     0.0000     1.1970 ca         1 P1F      -0.064300
      5 C16          4.1900    -0.0000     2.5020 c3         1 P1F      -0.038100
      6 C17          4.4450    -1.4430     2.9440 c3         1 P1F      -0.077400
      7 C18          5.2100    -1.4430     4.2690 c3         1 P1F      -0.083400
      8 C19          5.4650    -2.8850     4.7110 c3         1 P1F      -0.081400
      9 C20          6.2310    -2.8860     6.0350 c3         1 P1F      -0.084400
     10 C21          6.4850    -4.3280     6.4760 c3         1 P1F      -0.092100
     11 C3           4.1300    -0.0010     0.0000 ca         1 P1F      -0.133000
     12 C4           3.4440    -0.0020    -1.1990 ca         1 P1F      -0.118000
     13 C5           2.0570    -0.0060    -1.2050 ca         1 P1F       0.078100
     14 O7           1.3800    -0.0110    -2.3840 os         1 P1F      -0.231200
     15 C8           0.8960     1.1710    -2.8480 ca         1 P1F       0.129100
     16 C9           1.1980     2.3520    -2.1880 ca         1 P1F      -0.198000
     17 C10          0.7050     3.5540    -2.6600 ca         1 P1F      -0.100000
     18 C11         -0.0900     3.5830    -3.7920 ca         1 P1F      -0.161000
     19 C12         -0.3950     2.4110    -4.4570 ca         1 P1F      -0.114000
     20 C13          0.1010     1.2010    -3.9910 ca         1 P1F       0.138600
     21 NAB         -0.2010     0.0130    -4.6670 nv         1 P1F      -0.978200
     22 H17         -0.3140    -0.8000     0.3880 ho         1 P1F       0.423000
     23 H1           1.5140     0.0230     2.1370 ha         1 P1F       0.142000
     24 H161         3.6050     0.5110     3.2570 hc         1 P1F       0.051200
     25 H162         5.1370     0.5100     2.3720 hc         1 P1F       0.051200
     26 H3           5.2130     0.0010     0.0030 ha         1 P1F       0.138000
     27 H171         3.4980    -1.9530     3.0740 hc         1 P1F       0.045700
     28 H172         5.0300    -1.9540     2.1890 hc         1 P1F       0.045700
     29 H181         4.6250    -0.9320     5.0240 hc         1 P1F       0.041700
     30 H182         6.1570    -0.9320     4.1390 hc         1 P1F       0.041700
     31 H191         6.0500    -3.3960     3.9550 hc         1 P1F       0.041700
     32 H192         4.5190    -3.3960     4.8400 hc         1 P1F       0.041700
     33 H201         7.1770    -2.3760     5.9050 hc         1 P1F       0.040200
     34 H202         5.6460    -2.3750     6.7900 hc         1 P1F       0.040200
     35 H211         7.0700    -4.8390     5.7210 hc         1 P1F       0.033033
     36 H212         5.5380    -4.8390     6.6070 hc         1 P1F       0.033033
     37 H213         7.0270    -4.3290     7.4140 hc         1 P1F       0.033033
     38 H4           3.9890    -0.0040    -2.1350 ha         1 P1F       0.148000
     39 H9           1.8200     2.3330    -1.3010 ha         1 P1F       0.142000
     40 H10          0.9410     4.4760    -2.1420 ha         1 P1F       0.129000
     41 H11         -0.4760     4.5280    -4.1570 ha         1 P1F       0.128000
     42 H12         -1.0150     2.4360    -5.3440 ha         1 P1F       0.138000
     43 HAB1        -1.0320    -0.4960    -4.4370 hn         1 P1F       0.426300
     44 HAB2         0.3960    -0.3110    -5.4010 hn         1 P1F       0.426300
@<TRIPOS>BOND
     1     1     2 1
     2     2     3 ar
     3     2    13 ar
     4     3     4 ar
     5     4     5 1
     6     4    11 ar
     7     5     6 1
     8     6     7 1
     9     7     8 1
    10     8     9 1
    11     9    10 1
    12    11    12 ar
    13    12    13 ar
    14    13    14 1
    15    14    15 1
    16    15    16 ar
    17    15    20 ar
    18    16    17 ar
    19    17    18 ar
    20    18    19 ar
    21    19    20 ar
    22    20    21 1
    23     1    22 1
    24     3    23 1
    25     5    24 1
    26     5    25 1
    27    11    26 1
    28     6    27 1
    29     6    28 1
    30     7    29 1
    31     7    30 1
    32     8    31 1
    33     8    32 1
    34     9    33 1
    35     9    34 1
    36    10    35 1
    37    10    36 1
    38    10    37 1
    39    12    38 1
    40    16    39 1
    41    17    40 1
    42    18    41 1
    43    19    42 1
    44    21    43 1
    45    21    44 1
@<TRIPOS>SUBSTRUCTURE
     1 P1F         1 TEMP              0 ****  ****    0 ROOT
