@<TRIPOS>MOLECULE
P1G
   40    43     1     0     0
SMALL
bcc


@<TRIPOS>ATOM
      1 O3         -1.1560    0.6740   -0.6230 o         1 P1G     -0.869500
      2 P          -0.0590    0.6170    0.3710 p5        1 P1G      1.345600
      3 O4         -0.1570    1.2540    1.7090 o         1 P1G     -0.869500
      4 O2          0.1850   -0.9860    0.6010 oh        1 P1G     -0.795400
      5 C1P         1.4820    1.1290   -0.2560 c3        1 P1G     -0.326600
      6 C1          1.9980    1.1320   -1.6750 c3        1 P1G      0.399900
      7 O3'         1.1290    1.6830   -2.6760 os        1 P1G     -0.434600
      8 O2'         2.4000   -0.1630   -2.1270 os        1 P1G     -0.418600
      9 C2'         2.0550   -0.3330   -3.5100 c3        1 P1G      0.102800
     10 C3'         0.9920    0.7760   -3.7620 c3        1 P1G      0.091100
     11 C4'        -0.3500    0.0290   -3.7600 c3        1 P1G      0.031100
     12 C5'        -1.1000    0.2230   -5.0740 c3        1 P1G      0.127400
     13 O5'        -2.2050   -0.6520   -5.2020 oh        1 P1G     -0.627800
     14 O4'        -0.0590   -1.3810   -3.5880 os        1 P1G     -0.424400
     15 C1'         1.3130   -1.6200   -3.7420 c2        1 P1G      0.047600
     16 N9          1.6370   -2.4780   -4.7830 na        1 P1G     -0.019900
     17 C8          0.7420   -3.4060   -5.3650 cc        1 P1G      0.276400
     18 N7          1.3380   -4.3040   -6.2050 nd        1 P1G     -0.627000
     19 C5          2.6670   -3.9680   -6.1930 cd        1 P1G      0.173800
     20 C4          2.8890   -2.8080   -5.3110 cc        1 P1G     -0.091200
     21 N3          4.1380   -2.2810   -5.0460 nc        1 P1G     -0.557100
     22 C2          5.1600   -2.8620   -5.6750 cd        1 P1G      0.490800
     23 N2          6.5130   -2.3620   -5.4970 nh        1 P1G     -0.854800
     24 N1          5.0460   -3.9710   -6.5530 n         1 P1G     -0.492400
     25 C6          3.8050   -4.5630   -6.8560 c         1 P1G      0.647000
     26 O6          3.8170   -5.5270   -7.6550 o         1 P1G     -0.706500
     27 H1P1        1.5800    2.1880    0.0980 hc        1 P1G      0.065700
     28 H1P2        2.2290    0.5190    0.3190 hc        1 P1G      0.065700
     29 H1          2.9270    1.7900   -1.7130 h2        1 P1G     -0.011300
     30 H2'         2.9910   -0.2030   -4.1050 h1        1 P1G      0.061700
     31 H3'         1.1570    1.3700   -4.6930 h1        1 P1G      0.049700
     32 H4'        -0.9880    0.3080   -2.8690 h1        1 P1G      0.165700
     33 H5'1       -0.4160    0.0550   -5.9510 h1        1 P1G      0.023700
     34 H5'2       -1.5280    1.2590   -5.1270 h1        1 P1G      0.023700
     35 H5'        -1.9700   -1.4740   -4.7480 ho        1 P1G      0.421000
     36 H1'        -0.0620   -1.5020   -0.1590 ho        1 P1G      0.435000
     37 H8         -0.3150   -3.4020   -5.0920 h5        1 P1G      0.054100
     38 HN21        6.8570   -2.6920   -4.6120 hn        1 P1G      0.358300
     39 HN22        6.4970   -1.3590   -5.4760 hn        1 P1G      0.358300
     40 HN1         5.8580   -4.3150   -7.0080 hn        1 P1G      0.310500
@<TRIPOS>BOND
     1    1    2 1   
     2    2    3 1   
     3    2    4 1   
     4    2    5 1   
     5    4   36 1   
     6    5    6 1   
     7    5   27 1   
     8    5   28 1   
     9    6    7 1   
    10    6    8 1   
    11    6   29 1   
    12    7   10 1   
    13    8    9 1   
    14    9   10 1   
    15    9   15 1   
    16    9   30 1   
    17   10   11 1   
    18   10   31 1   
    19   11   12 1   
    20   11   14 1   
    21   11   32 1   
    22   12   13 1   
    23   12   33 1   
    24   12   34 1   
    25   13   35 1   
    26   14   15 1   
    27   15   16 2   
    28   16   17 1   
    29   16   20 1   
    30   17   18 2   
    31   17   37 1   
    32   18   19 1   
    33   19   20 2   
    34   19   25 1   
    35   20   21 1   
    36   21   22 2   
    37   22   23 1   
    38   22   24 1   
    39   23   38 1   
    40   23   39 1   
    41   24   25 1   
    42   24   40 1   
    43   25   26 2   
@<TRIPOS>SUBSTRUCTURE
     1 P1G         1 TEMP              0 ****  ****    0 ROOT
