@<TRIPOS>MOLECULE
molecule
   94    93     1     0     0
SMALL
bcc


@<TRIPOS>ATOM
      1 O1           0.0000     0.0000     0.0000 o          1 P1O      -0.800000
      2 O2           2.1040    -1.2130    -0.6870 o          1 P1O      -0.800000
      3 P1           1.6100     0.0000     0.0000 p5         1 P1O       1.255800
      4 O3           2.1460     0.0000     1.5180 os         1 P1O      -0.559200
      5 C1           1.7390    -1.2400     2.1010 c3         1 P1O       0.132400
      6 C2           2.2190    -1.3030     3.5520 c3         1 P1O       0.100800
      7 N1           1.5140    -0.2880     4.3460 n4         1 P1O      -0.568800
      8 C3           0.0650    -0.4620     4.1900 c3         1 P1O       0.097100
      9 C4           1.8760    -0.4370     5.7620 c3         1 P1O       0.097100
     10 C5           1.9000     1.0510     3.8800 c3         1 P1O       0.097100
     11 O4           2.1470     1.3140    -0.7590 os         1 P1O      -0.522200
     12 C6           1.7390     1.1980    -2.1230 c3         1 P1O       0.137400
     13 C7           2.2210     2.4230    -2.9050 c3         1 P1O       0.156100
     14 C8           1.7120     3.6950    -2.2230 c3         1 P1O       0.167400
     15 O5           2.1270     3.6970    -0.8320 os         1 P1O      -0.384900
     16 C9           1.7930     4.7220    -0.0330 c          1 P1O       0.633100
     17 O6           1.1460     5.6440    -0.4720 o          1 P1O      -0.570000
     18 C10          2.2230     4.7240     1.4110 c3         1 P1O      -0.120400
     19 C11          1.7150     5.9950     2.0930 c3         1 P1O      -0.075400
     20 C12          2.1520     5.9980     3.5590 c3         1 P1O      -0.082400
     21 C13          1.6450     7.2700     4.2410 c3         1 P1O      -0.081400
     22 C14          2.0810     7.2710     5.7070 c3         1 P1O      -0.082400
     23 C15          1.5730     8.5440     6.3890 c3         1 P1O      -0.082400
     24 C16          2.0100     8.5460     7.8550 c3         1 P1O      -0.081400
     25 C17          1.5020     9.8180     8.5370 c3         1 P1O      -0.084400
     26 C18          1.9390     9.8200    10.0040 c3         1 P1O      -0.092100
     27 O7           3.6720     2.4370    -2.9360 os         1 P1O      -0.421900
     28 C19          4.3280     1.8220    -3.9340 c          1 P1O       0.636100
     29 O8           3.7100     1.2580    -4.8050 o          1 P1O      -0.556000
     30 C20          5.8350     1.8370    -3.9670 c3         1 P1O      -0.123400
     31 C21          6.3250     1.0710    -5.1970 c3         1 P1O      -0.072400
     32 C22          7.8550     1.0870    -5.2310 c3         1 P1O      -0.084400
     33 C23          8.3450     0.3210    -6.4610 c3         1 P1O      -0.080400
     34 C24          9.8760     0.3360    -6.4940 c3         1 P1O      -0.082400
     35 C25         10.3660    -0.4300    -7.7250 c3         1 P1O      -0.082400
     36 C26         11.8960    -0.4150    -7.7590 c3         1 P1O      -0.081400
     37 C27         12.3860    -1.1810    -8.9890 c3         1 P1O      -0.084400
     38 C28         13.9160    -1.1660    -9.0220 c3         1 P1O      -0.092100
     39 H1           0.6580    -1.3130     2.0740 h1         1 P1O       0.094200
     40 H2           2.1700    -2.0610     1.5410 h1         1 P1O       0.094200
     41 H3           3.2850    -1.1140     3.5880 hx         1 P1O       0.092200
     42 H4           2.0130    -2.2870     3.9580 hx         1 P1O       0.092200
     43 H5          -0.1690    -1.5190     4.1380 hx         1 P1O       0.095367
     44 H6          -0.2620     0.0240     3.2790 hx         1 P1O       0.095367
     45 H7          -0.4460    -0.0210     5.0370 hx         1 P1O       0.095367
     46 H8           1.5800    -1.4200     6.1090 hx         1 P1O       0.095367
     47 H9           2.9470    -0.3220     5.8750 hx         1 P1O       0.095367
     48 H10          1.3680     0.3200     6.3460 hx         1 P1O       0.095367
     49 H11          1.8480     1.7490     4.7070 hx         1 P1O       0.095367
     50 H12          1.2240     1.3690     3.0960 hx         1 P1O       0.095367
     51 H13          2.9120     1.0210     3.4950 hx         1 P1O       0.095367
     52 H14          0.6590     1.1400    -2.1740 h1         1 P1O       0.073200
     53 H15          2.1700     0.3020    -2.5540 h1         1 P1O       0.073200
     54 H16          1.8380     2.3780    -3.9170 h1         1 P1O       0.080700
     55 H17          0.6310     3.7260    -2.2780 h1         1 P1O       0.054700
     56 H18          2.1250     4.5620    -2.7240 h1         1 P1O       0.054700
     57 H19          3.3040     4.6920     1.4660 hc         1 P1O       0.062700
     58 H20          1.8110     3.8560     1.9120 hc         1 P1O       0.062700
     59 H21          2.1280     6.8630     1.5920 hc         1 P1O       0.061700
     60 H22          0.6340     6.0270     2.0380 hc         1 P1O       0.061700
     61 H23          3.2330     5.9650     3.6140 hc         1 P1O       0.031700
     62 H24          1.7390     5.1300     4.0600 hc         1 P1O       0.031700
     63 H25          2.0580     8.1370     3.7410 hc         1 P1O       0.047700
     64 H26          0.5630     7.3030     4.1860 hc         1 P1O       0.047700
     65 H27          3.1620     7.2390     5.7620 hc         1 P1O       0.036200
     66 H28          1.6670     6.4040     6.2080 hc         1 P1O       0.036200
     67 H29          1.9860     9.4110     5.8880 hc         1 P1O       0.044200
     68 H30          0.4920     8.5760     6.3350 hc         1 P1O       0.044200
     69 H31          3.0920     8.5140     7.9100 hc         1 P1O       0.038700
     70 H32          1.5980     7.6790     8.3560 hc         1 P1O       0.038700
     71 H33          1.9150    10.6850     8.0370 hc         1 P1O       0.041700
     72 H34          0.4210     9.8500     8.4830 hc         1 P1O       0.041700
     73 H35          1.5870    10.7250    10.4840 hc         1 P1O       0.032367
     74 H36          3.0200     9.7790    10.0580 hc         1 P1O       0.032367
     75 H37          1.5190     8.9580    10.5070 hc         1 P1O       0.032367
     76 H38          6.2200     1.3670    -3.0710 hc         1 P1O       0.069200
     77 H39          6.1850     2.8620    -4.0160 hc         1 P1O       0.069200
     78 H40          5.9400     1.5420    -6.0930 hc         1 P1O       0.059700
     79 H41          5.9760     0.0470    -5.1480 hc         1 P1O       0.059700
     80 H42          8.2410     0.6150    -4.3350 hc         1 P1O       0.038700
     81 H43          8.2050     2.1110    -5.2800 hc         1 P1O       0.038700
     82 H44          7.9950    -0.7030    -6.4130 hc         1 P1O       0.044700
     83 H45          7.9600     0.7920    -7.3570 hc         1 P1O       0.044700
     84 H46         10.2610    -0.1360    -5.5980 hc         1 P1O       0.039700
     85 H47         10.2260     1.3600    -6.5430 hc         1 P1O       0.039700
     86 H48          9.9800     0.0410    -8.6210 hc         1 P1O       0.042200
     87 H49         10.0160    -1.4540    -7.6760 hc         1 P1O       0.042200
     88 H50         12.2450     0.6090    -7.8080 hc         1 P1O       0.040200
     89 H51         12.2810    -0.8850    -6.8620 hc         1 P1O       0.040200
     90 H52         12.0010    -0.7100    -9.8850 hc         1 P1O       0.040700
     91 H53         12.0370    -2.2050    -8.9390 hc         1 P1O       0.040700
     92 H54         14.2640    -1.7020    -9.8970 hc         1 P1O       0.031700
     93 H55         14.2660    -0.1410    -9.0640 hc         1 P1O       0.031700
     94 H56         14.3020    -1.6430    -8.1290 hc         1 P1O       0.031700
@<TRIPOS>BOND
     1     1     3 1
     2     2     3 1
     3     3     4 1
     4     3    11 1
     5     4     5 1
     6     5     6 1
     7     5    39 1
     8     5    40 1
     9     6     7 1
    10     6    41 1
    11     6    42 1
    12     7     8 1
    13     7     9 1
    14     7    10 1
    15     8    43 1
    16     8    44 1
    17     8    45 1
    18     9    46 1
    19     9    47 1
    20     9    48 1
    21    10    49 1
    22    10    50 1
    23    10    51 1
    24    11    12 1
    25    12    13 1
    26    12    52 1
    27    12    53 1
    28    13    14 1
    29    13    27 1
    30    13    54 1
    31    14    15 1
    32    14    55 1
    33    14    56 1
    34    15    16 1
    35    16    17 2
    36    16    18 1
    37    18    19 1
    38    18    57 1
    39    18    58 1
    40    19    20 1
    41    19    59 1
    42    19    60 1
    43    20    21 1
    44    20    61 1
    45    20    62 1
    46    21    22 1
    47    21    63 1
    48    21    64 1
    49    22    23 1
    50    22    65 1
    51    22    66 1
    52    23    24 1
    53    23    67 1
    54    23    68 1
    55    24    25 1
    56    24    69 1
    57    24    70 1
    58    25    26 1
    59    25    71 1
    60    25    72 1
    61    26    73 1
    62    26    74 1
    63    26    75 1
    64    27    28 1
    65    28    29 2
    66    28    30 1
    67    30    31 1
    68    30    76 1
    69    30    77 1
    70    31    32 1
    71    31    78 1
    72    31    79 1
    73    32    33 1
    74    32    80 1
    75    32    81 1
    76    33    34 1
    77    33    82 1
    78    33    83 1
    79    34    35 1
    80    34    84 1
    81    34    85 1
    82    35    36 1
    83    35    86 1
    84    35    87 1
    85    36    37 1
    86    36    88 1
    87    36    89 1
    88    37    38 1
    89    37    90 1
    90    37    91 1
    91    38    92 1
    92    38    93 1
    93    38    94 1
@<TRIPOS>SUBSTRUCTURE
     1 P1O         1 TEMP              0 ****  ****    0 ROOT
