@<TRIPOS>MOLECULE
P1R
   10    10     1     0     0
SMALL
bcc


@<TRIPOS>ATOM
      1 C5         -0.0160    0.0000   -0.0270 ca        1 P1R     -0.363600
      2 C6          1.3920   -0.0000   -0.0080 ca        1 P1R      0.425200
      3 N1          2.0980   -0.0000    1.1430 nb        1 P1R     -0.691000
      4 C4         -0.6690    0.0000    1.2210 ca        1 P1R      0.425200
      5 N3          0.0060    0.0000    2.3890 nb        1 P1R     -0.691000
      6 C2          1.3630    0.0000    2.2890 ca        1 P1R      0.626900
      7 H5         -0.5770    0.0000   -0.9680 ha        1 P1R      0.155000
      8 H6          1.9800   -0.0000   -0.9430 h4        1 P1R      0.029100
      9 H4         -1.7720    0.0000    1.2930 h4        1 P1R      0.029100
     10 H2          1.9310    0.0000    3.2420 h5        1 P1R      0.056100
@<TRIPOS>BOND
     1    1    2 ar  
     2    1    4 ar  
     3    1    7 1   
     4    2    3 ar  
     5    2    8 1   
     6    3    6 ar  
     7    4    5 ar  
     8    4    9 1   
     9    5    6 ar  
    10    6   10 1   
@<TRIPOS>SUBSTRUCTURE
     1 P1R         1 TEMP              0 ****  ****    0 ROOT
