@<TRIPOS>MOLECULE
molecule
   10    10     1     0     0
SMALL
bcc


@<TRIPOS>ATOM
      1 C5           0.0000     0.0000     0.0000 ca         1 P1R      -0.383600
      2 C6           1.3850     0.0000     0.0000 ca         1 P1R       0.456200
      3 N1           2.0300     0.0000     1.1560 nb         1 P1R      -0.736500
      4 C4          -0.6600     0.0000     1.2200 ca         1 P1R       0.456200
      5 N3           0.0520     0.0000     2.3360 nb         1 P1R      -0.736500
      6 C2           1.3690     0.0000     2.2970 ca         1 P1R       0.677900
      7 H5          -0.5550     0.0000    -0.9310 ha         1 P1R       0.146000
      8 H6           1.9340    -0.0000    -0.9340 h4         1 P1R       0.030100
      9 H4          -1.7420    -0.0000     1.2580 h4         1 P1R       0.030100
     10 H2           1.9230    -0.0000     3.2280 h5         1 P1R       0.061100
@<TRIPOS>BOND
     1     1     2 ar
     2     1     4 ar
     3     1     7 1
     4     2     3 ar
     5     2     8 1
     6     3     6 ar
     7     4     5 ar
     8     4     9 1
     9     5     6 ar
    10     6    10 1
@<TRIPOS>SUBSTRUCTURE
     1 P1R         1 TEMP              0 ****  ****    0 ROOT
