@<TRIPOS>MOLECULE
molecule
   37    41     1     0     0
SMALL
bcc


@<TRIPOS>ATOM
      1 C1           0.0000     0.0000     0.0000 c3         1 P1S       0.102400
      2 O1           1.4260     0.0000     0.0000 os         1 P1S      -0.298900
      3 C2           1.8170     0.0000     1.3120 ca         1 P1S       0.121100
      4 C3           1.1570    -0.7460     2.2700 ca         1 P1S      -0.141300
      5 C4          -0.0580    -1.5710     1.9510 c3         1 P1S       0.207400
      6 C5          -0.5010    -1.3580     0.4880 c3         1 P1S       0.150100
      7 C6           2.9320     0.7560     1.6660 ca         1 P1S      -0.127000
      8 C7           3.3880     0.7530     2.9670 ca         1 P1S      -0.054300
      9 C8           2.7280     0.0050     3.9250 ca         1 P1S      -0.131000
     10 C9           1.6200    -0.7400     3.5790 ca         1 P1S      -0.080000
     11 O2          -1.1760    -1.0950     2.7240 os         1 P1S      -0.302900
     12 C10         -2.3040    -1.1880     1.9840 ca         1 P1S       0.137100
     13 C11         -2.0110    -1.3270     0.6250 ca         1 P1S      -0.216300
     14 C12         -3.6260    -1.1550     2.4500 ca         1 P1S      -0.129000
     15 C13         -4.6020    -1.2630     1.4630 ca         1 P1S       0.084100
     16 C14         -4.2930    -1.3950     0.1010 ca         1 P1S       0.011100
     17 C15         -2.9780    -1.4320    -0.3640 ca         1 P1S      -0.053000
     18 O3          -5.9500    -1.2620     1.6030 os         1 P1S      -0.319900
     19 C16         -6.4690    -1.7870     0.3630 c3         1 P1S       0.330200
     20 O4          -5.4460    -1.4720    -0.6040 os         1 P1S      -0.321900
     21 O5          -0.0730    -2.4260    -0.3590 oh         1 P1S      -0.572800
     22 C17          4.5970     1.5690     3.3450 c3         1 P1S       0.187700
     23 O6           5.7750     0.7740     3.1900 oh         1 P1S      -0.601800
     24 H11         -0.3500     0.7670     0.6800 h1         1 P1S       0.073700
     25 H12A        -0.3500     0.1590    -1.0130 h1         1 P1S       0.073700
     26 H4           0.1250    -2.6200     2.1480 h1         1 P1S       0.098700
     27 H6           3.4470     1.3410     0.9140 ha         1 P1S       0.149000
     28 H8           3.0850     0.0010     4.9480 ha         1 P1S       0.138000
     29 H9           1.1070    -1.3240     4.3330 ha         1 P1S       0.143000
     30 H12         -3.8570    -0.6690     3.3900 ha         1 P1S       0.167000
     31 H15         -2.7480    -1.9340    -1.2960 ha         1 P1S       0.160000
     32 H161        -6.6050    -2.8590     0.4340 h2         1 P1S       0.071700
     33 H162        -7.3980    -1.2950     0.1040 h2         1 P1S       0.071700
     34 HO5         -0.0980    -2.1440    -1.2580 ho         1 P1S       0.413000
     35 H171         4.6610     2.4390     2.7030 h1         1 P1S       0.027700
     36 H172         4.5090     1.8870     4.3770 h1         1 P1S       0.027700
     37 HO6          6.5320     1.2840     3.4270 ho         1 P1S       0.403000
@<TRIPOS>BOND
     1     1     2 1
     2     1     6 1
     3     1    24 1
     4     1    25 1
     5     2     3 1
     6     3     4 ar
     7     3     7 ar
     8     4     5 1
     9     4    10 ar
    10     5     6 1
    11     5    11 1
    12     5    26 1
    13     6    13 1
    14     6    21 1
    15     7     8 ar
    16     7    27 1
    17     8     9 ar
    18     8    22 1
    19     9    10 ar
    20     9    28 1
    21    10    29 1
    22    11    12 1
    23    12    13 ar
    24    12    14 ar
    25    13    17 ar
    26    14    15 ar
    27    14    30 1
    28    15    16 ar
    29    15    18 1
    30    16    17 ar
    31    16    20 1
    32    17    31 1
    33    18    19 1
    34    19    20 1
    35    19    32 1
    36    19    33 1
    37    21    34 1
    38    22    23 1
    39    22    35 1
    40    22    36 1
    41    23    37 1
@<TRIPOS>SUBSTRUCTURE
     1 P1S         1 TEMP              0 ****  ****    0 ROOT
