@<TRIPOS>MOLECULE
P1S
   37    41     1     0     0
SMALL
bcc


@<TRIPOS>ATOM
      1 C1          0.1100   -0.3420   -0.3890 c3        1 P1S      0.114400
      2 O1          1.5000   -0.1090   -0.1700 os        1 P1S     -0.314900
      3 C2          1.8480   -0.0700    1.1710 ca        1 P1S      0.124100
      4 C3          1.2230   -0.8950    2.1190 ca        1 P1S     -0.153300
      5 C4          0.1980   -1.8850    1.6970 c3        1 P1S      0.199400
      6 C5         -0.4120   -1.6180    0.2790 c3        1 P1S      0.169100
      7 C6          2.8880    0.7960    1.5310 ca        1 P1S     -0.152000
      8 C7          3.2990    0.8440    2.8660 ca        1 P1S     -0.055300
      9 C8          2.6620    0.0490    3.8250 ca        1 P1S     -0.129000
     10 C9          1.6340   -0.8140    3.4530 ca        1 P1S     -0.077000
     11 O2         -0.9070   -1.8860    2.6590 os        1 P1S     -0.308900
     12 C10        -2.0820   -1.6720    1.9620 ca        1 P1S      0.148100
     13 C11        -1.8880   -1.5100    0.5720 ca        1 P1S     -0.223300
     14 C12        -3.3370   -1.6310    2.5900 ca        1 P1S     -0.133000
     15 C13        -4.3850   -1.4160    1.7120 ca        1 P1S      0.100100
     16 C14        -4.2040   -1.2540    0.3110 ca        1 P1S      0.013100
     17 C15        -2.9610   -1.2960   -0.2960 ca        1 P1S     -0.052000
     18 O3         -5.7370   -1.3240    2.0110 os        1 P1S     -0.329900
     19 C16        -6.4320   -1.0980    0.7610 c3        1 P1S      0.322200
     20 O4         -5.4450   -1.0570   -0.2930 os        1 P1S     -0.333900
     21 O5         -0.0870   -2.7590   -0.4990 oh        1 P1S     -0.574800
     22 C17         4.4220    1.7620    3.2240 c3        1 P1S      0.173700
     23 O6          4.6130    1.7540    4.6310 oh        1 P1S     -0.597800
     24 H11         0.0380   -0.4260   -1.5070 h1        1 P1S      0.069700
     25 H12A       -0.4740    0.5440   -0.0230 h1        1 P1S      0.069700
     26 H4          0.6220   -2.9280    1.7330 h1        1 P1S      0.109700
     27 H6          3.3690    1.4190    0.7630 ha        1 P1S      0.148000
     28 H8          2.9820    0.1090    4.8780 ha        1 P1S      0.159000
     29 H9          1.1330   -1.4410    4.2070 ha        1 P1S      0.148000
     30 H12        -3.4640   -1.7590    3.6700 ha        1 P1S      0.177000
     31 H15        -2.8300   -1.1710   -1.3780 ha        1 P1S      0.155000
     32 H161       -6.9430   -0.1050    0.8130 h2        1 P1S      0.074700
     33 H162       -7.1190   -1.9600    0.5760 h2        1 P1S      0.074700
     34 HO5        -0.6530   -2.7400   -1.2810 ho        1 P1S      0.410000
     35 H171        5.3640    1.4200    2.7120 h1        1 P1S      0.035700
     36 H172        4.1830    2.8080    2.8810 h1        1 P1S      0.035700
     37 HO6         5.3490    2.3520    4.8050 ho        1 P1S      0.405000
@<TRIPOS>BOND
     1    1    2 1   
     2    1    6 1   
     3    1   24 1   
     4    1   25 1   
     5    2    3 1   
     6    3    4 ar  
     7    3    7 ar  
     8    4    5 1   
     9    4   10 ar  
    10    5    6 1   
    11    5   11 1   
    12    5   26 1   
    13    6   13 1   
    14    6   21 1   
    15    7    8 ar  
    16    7   27 1   
    17    8    9 ar  
    18    8   22 1   
    19    9   10 ar  
    20    9   28 1   
    21   10   29 1   
    22   11   12 1   
    23   12   13 ar  
    24   12   14 ar  
    25   13   17 ar  
    26   14   15 ar  
    27   14   30 1   
    28   15   16 ar  
    29   15   18 1   
    30   16   17 ar  
    31   16   20 1   
    32   17   31 1   
    33   18   19 1   
    34   19   20 1   
    35   19   32 1   
    36   19   33 1   
    37   21   34 1   
    38   22   23 1   
    39   22   35 1   
    40   22   36 1   
    41   23   37 1   
@<TRIPOS>SUBSTRUCTURE
     1 P1S         1 TEMP              0 ****  ****    0 ROOT
