@<TRIPOS>MOLECULE
molecule
   33    33     1     0     0
SMALL
bcc


@<TRIPOS>ATOM
      1 OP1          0.0000     0.0000     0.0000 o          1 P1T      -0.909500
      2 P            1.6170     0.0000     0.0000 p5         1 P1T       1.165900
      3 OP2          2.2600     0.0000     1.3560 o          1 P1T      -0.909500
      4 OP3          1.9890     1.2680    -0.9330 o          1 P1T      -0.909500
      5 OP4          2.0020    -1.2570    -0.9400 os         1 P1T      -0.574200
      6 C5A          1.4300    -1.3260    -2.2420 c3         1 P1T       0.247700
      7 C5           1.9150    -2.5530    -2.9320 ca         1 P1T      -0.125600
      8 C6           3.0700    -2.5110    -3.6950 ca         1 P1T       0.368200
      9 N1           3.5810    -3.5760    -4.3540 nb         1 P1T      -0.705000
     10 C2           2.8970    -4.7370    -4.2420 ca         1 P1T       0.308600
     11 C2A          3.4710    -5.9040    -4.9750 c3         1 P1T      -0.128400
     12 C3           1.7340    -4.8830    -3.5050 ca         1 P1T      -0.003200
     13 O3A          1.0940    -6.0800    -3.4330 oh         1 P1T      -0.492100
     14 C4           1.2380    -3.7660    -2.8410 ca         1 P1T      -0.068300
     15 C4A         -0.0140    -3.8710    -2.0320 c3         1 P1T       0.270100
     16 N           -1.1910    -3.5890    -2.8120 nu         1 P1T      -0.782000
     17 CA          -2.1710    -4.4740    -2.9850 ce         1 P1T       0.121800
     18 CB          -2.9570    -4.5440    -4.0710 c2         1 P1T      -0.402000
     19 C           -2.4330    -5.4660    -1.9080 c          1 P1T       0.879800
     20 OXT         -2.9230    -6.6200    -2.4250 o          1 P1T      -0.854800
     21 O           -2.2390    -5.2890    -0.7150 o          1 P1T      -0.854800
     22 H5A1         0.3500    -1.3590    -2.1610 h1         1 P1T       0.045700
     23 H5A2         1.7230    -0.4520    -2.8120 h1         1 P1T       0.045700
     24 H6           3.5970    -1.5680    -3.7670 h4         1 P1T       0.019100
     25 H2A1         2.7030    -6.3560    -5.5910 hc         1 P1T       0.026700
     26 H2A2         4.2880    -5.5690    -5.6040 hc         1 P1T       0.026700
     27 H2A3         3.8390    -6.6320    -4.2630 hc         1 P1T       0.026700
     28 HO3A         1.5810    -6.6640    -2.8770 ho         1 P1T       0.396000
     29 H4A1        -0.0900    -4.8750    -1.6320 h1         1 P1T       0.090200
     30 H4A2         0.0390    -3.1680    -1.2100 h1         1 P1T       0.090200
     31 HN          -1.2760    -2.6890    -3.2420 hn         1 P1T       0.411800
     32 HB1         -3.7340    -5.2970    -4.1300 ha         1 P1T       0.089000
     33 HB2         -2.8150    -3.8470    -4.8880 ha         1 P1T       0.089000
@<TRIPOS>BOND
     1     1     2 1
     2     2     3 1
     3     2     5 1
     4     2     4 1
     5     5     6 1
     6     6     7 1
     7     6    22 1
     8     6    23 1
     9     7    14 ar
    10     7     8 ar
    11     8     9 ar
    12     8    24 1
    13     9    10 ar
    14    10    12 ar
    15    10    11 1
    16    11    25 1
    17    11    26 1
    18    11    27 1
    19    12    13 1
    20    12    14 ar
    21    13    28 1
    22    14    15 1
    23    15    16 1
    24    15    29 1
    25    15    30 1
    26    16    17 1
    27    16    31 1
    28    17    19 1
    29    17    18 2
    30    18    32 1
    31    18    33 1
    32    19    21 1
    33    19    20 1
@<TRIPOS>SUBSTRUCTURE
     1 P1T         1 TEMP              0 ****  ****    0 ROOT
