@<TRIPOS>MOLECULE
molecule
   31    32     1     0     0
SMALL
bcc


@<TRIPOS>ATOM
      1 C01          0.0000     0.0000     0.0000 ca         1 P1Y      -0.058000
      2 C02          1.3830     0.0000     0.0000 ca         1 P1Y      -0.054900
      3 C03          2.0740     0.0000     1.2040 ca         1 P1Y       0.151100
      4 C04          1.3760     0.0000     2.4020 ca         1 P1Y      -0.223000
      5 C05         -0.0050    -0.0000     2.3960 ca         1 P1Y      -0.052000
      6 C06         -0.6930     0.0050     1.1960 ca         1 P1Y      -0.108300
      7 C07         -2.2000     0.0050     1.1930 c3         1 P1Y      -0.051400
      8 C08         -2.7020     1.4260     1.1970 ca         1 P1Y       0.662300
      9 N09         -2.9120     2.0220     2.3490 nb         1 P1Y      -0.688000
     10 C10         -3.3560     3.2790     2.4000 ca         1 P1Y       0.445800
     11 C11         -3.5970     3.9590     1.2030 ca         1 P1Y      -0.114500
     12 C12         -3.3590     3.2780    -0.0010 ca         1 P1Y       0.595600
     13 N13         -2.9120     2.0320     0.0440 nb         1 P1Y      -0.818000
     14 O14         -4.0510     5.2380     1.2050 oh         1 P1Y      -0.467100
     15 O15         -3.5760     3.8890    -1.1920 oh         1 P1Y      -0.627300
     16 C16         -3.5900     3.9420     3.7030 c          1 P1Y       0.777100
     17 O17         -3.3540     3.2760     4.8500 o          1 P1Y      -0.799800
     18 O18         -3.9950     5.0870     3.7370 o          1 P1Y      -0.799800
     19 Br19         2.3300    -0.0010    -1.6360 br         1 P1Y      -0.108100
     20 O20          3.4330    -0.0000     1.2080 os         1 P1Y      -0.322900
     21 C21          4.0780    -0.0000     2.4830 c3         1 P1Y       0.128700
     22 H01         -0.5410    -0.0050    -0.9390 ha         1 P1Y       0.152000
     23 H04          1.9140     0.0210     3.3420 ha         1 P1Y       0.138000
     24 H05         -0.5510    -0.0040     3.3320 ha         1 P1Y       0.160000
     25 H07         -2.5630    -0.5080     2.0750 hc         1 P1Y       0.064700
     26 H07A        -2.5590    -0.5020     0.3060 hc         1 P1Y       0.064700
     27 H21          3.7820    -0.8820     3.0380 h1         1 P1Y       0.039367
     28 H21A         5.1530    -0.0060     2.3440 h1         1 P1Y       0.039367
     29 H21B         3.7900     0.8870     3.0340 h1         1 P1Y       0.039367
     30 H10         -3.3630     5.8160     0.9200 ho         1 P1Y       0.411000
     31 H11         -4.0890     3.3250    -1.7460 ho         1 P1Y       0.423000
@<TRIPOS>BOND
     1     1     2 ar
     2     1    22 1
     3     2    19 1
     4     3     2 ar
     5     3    20 1
     6     4     3 ar
     7     4    23 1
     8     5     4 ar
     9     5     6 ar
    10     5    24 1
    11     6     1 ar
    12     7     6 1
    13     7    25 1
    14     7    26 1
    15     8     7 1
    16     8    13 ar
    17     9     8 ar
    18    10     9 ar
    19    10    11 ar
    20    11    12 ar
    21    12    15 1
    22    12    13 ar
    23    14    11 1
    24    16    10 1
    25    16    17 1
    26    18    16 1
    27    21    20 1
    28    21    27 1
    29    21    28 1
    30    21    29 1
    31    14    30 1
    32    15    31 1
@<TRIPOS>SUBSTRUCTURE
     1 P1Y         1 TEMP              0 ****  ****    0 ROOT
