@<TRIPOS>MOLECULE
P1Y
   31    32     1     0     0
SMALL
bcc


@<TRIPOS>ATOM
      1 C01         0.0920   -0.3420   -0.0760 ca        1 P1Y     -0.077000
      2 C02         1.4840   -0.4210    0.0420 ca        1 P1Y     -0.057900
      3 C03         2.0740   -0.1780    1.2960 ca        1 P1Y      0.138100
      4 C04         1.2710    0.1310    2.4040 ca        1 P1Y     -0.205000
      5 C05        -0.1100    0.1990    2.2680 ca        1 P1Y     -0.057000
      6 C06        -0.7120   -0.0360    1.0240 ca        1 P1Y     -0.097300
      7 C07        -2.1930    0.0180    0.8800 c3        1 P1Y     -0.056400
      8 C08        -2.7130    1.4410    1.0140 ca        1 P1Y      0.599300
      9 N09        -2.7480    1.9730    2.2730 nb        1 P1Y     -0.666000
     10 C10        -3.2070    3.2320    2.4120 ca        1 P1Y      0.337800
     11 C11        -3.6250    3.9900    1.2790 ca        1 P1Y     -0.064500
     12 C12        -3.5630    3.3390    0.0140 ca        1 P1Y      0.574600
     13 N13        -3.1110    2.0670   -0.1340 nb        1 P1Y     -0.770000
     14 O14        -4.0870    5.2700    1.3120 oh        1 P1Y     -0.508100
     15 O15        -3.9860    4.0480   -1.0910 oh        1 P1Y     -0.607300
     16 C16        -3.2840    3.8810    3.8160 c         1 P1Y      0.823100
     17 O17        -3.6160    3.1750    4.7930 o         1 P1Y     -0.800300
     18 O18        -3.0290    5.1200    3.8530 o         1 P1Y     -0.800300
     19 BR19        2.4760   -0.8490   -1.4940 br        1 P1Y     -0.102100
     20 O20         3.4520   -0.2880    1.3760 os        1 P1Y     -0.325900
     21 C21         4.0520    0.2530    2.5470 c3        1 P1Y      0.115700
     22 H01        -0.3820   -0.5160   -1.0560 ha        1 P1Y      0.145000
     23 H04         1.7240    0.3280    3.3860 ha        1 P1Y      0.140000
     24 H05        -0.7370    0.4530    3.1400 ha        1 P1Y      0.177000
     25 H07        -2.6670   -0.6120    1.6820 hc        1 P1Y      0.062200
     26 H07A       -2.5010   -0.4090   -0.1110 hc        1 P1Y      0.062200
     27 H21         3.7250    1.3070    2.7180 h1        1 P1Y      0.042367
     28 H21A        3.8130   -0.3820    3.4350 h1        1 P1Y      0.042367
     29 H21B        5.1480    0.2100    2.3200 h1        1 P1Y      0.042367
     30 H10        -3.9040    5.6380    2.2040 ho        1 P1Y      0.478000
     31 H11        -3.8750    3.4900   -1.8760 ho        1 P1Y      0.416000
@<TRIPOS>BOND
     1    1    2 ar  
     2    1    6 ar  
     3    1   22 1   
     4    2    3 ar  
     5    2   19 1   
     6    3    4 ar  
     7    3   20 1   
     8    4    5 ar  
     9    4   23 1   
    10    5    6 ar  
    11    5   24 1   
    12    6    7 1   
    13    7    8 1   
    14    7   25 1   
    15    7   26 1   
    16    8    9 ar  
    17    8   13 ar  
    18    9   10 ar  
    19   10   11 ar  
    20   10   16 1   
    21   11   12 ar  
    22   11   14 1   
    23   12   13 ar  
    24   12   15 1   
    25   14   30 1   
    26   15   31 1   
    27   16   17 1   
    28   16   18 1   
    29   20   21 1   
    30   21   27 1   
    31   21   28 1   
    32   21   29 1   
@<TRIPOS>SUBSTRUCTURE
     1 P1Y         1 TEMP              0 ****  ****    0 ROOT
