@<TRIPOS>MOLECULE
P1Z
   43    45     1     0     0
SMALL
bcc


@<TRIPOS>ATOM
      1 C16          0.0000     0.0000     0.0000 ca         1 P1Z      -0.087000
      2 C17          1.3810     0.0000     0.0000 ca         1 P1Z      -0.096500
      3 C12          2.0740     0.0000     1.2030 ca         1 P1Z      -0.085400
      4 C13          1.3750     0.0120     2.4040 ca         1 P1Z      -0.096500
      5 C14         -0.0050     0.0190     2.3970 ca         1 P1Z      -0.087000
      6 C15         -0.6930     0.0130     1.1970 ca         1 P1Z      -0.095000
      7 C8           3.6910    -2.9820    -2.5080 ca         1 P1Z      -0.087000
      8 C9           2.7040    -3.8330    -2.0450 ca         1 P1Z      -0.095000
      9 C10          2.2300    -3.7090    -0.7530 ca         1 P1Z      -0.087000
     10 C11          2.7460    -2.7380     0.0830 ca         1 P1Z      -0.096500
     11 C6           3.7330    -1.8780    -0.3790 ca         1 P1Z      -0.085400
     12 C7           4.2070    -2.0050    -1.6790 ca         1 P1Z      -0.096500
     13 C21         10.0900     2.1500     0.0050 c3         1 P1Z       0.005900
     14 C20          8.6110     2.4970     0.1780 c3         1 P1Z      -0.024400
     15 C18          6.4020     1.6610     0.9940 c3         1 P1Z       0.009600
     16 N2           3.4730    -0.0070     1.2070 n          1 P1Z       0.020900
     17 C3           4.2320     0.8380     1.9300 c          1 P1Z       0.631000
     18 C4           5.6730     0.4770     1.6330 c3         1 P1Z      -0.239700
     19 C5           5.5680    -0.6750     0.6550 c          1 P1Z       0.631000
     20 N1           4.2520    -0.8890     0.4630 n          1 P1Z       0.020900
     21 O3           3.8390     1.7150     2.6700 o          1 P1Z      -0.624000
     22 O5           6.4850    -1.2810     0.1450 o          1 P1Z      -0.624000
     23 H16         -0.5410    -0.0020    -0.9380 ha         1 P1Z       0.107500
     24 H17          1.9230    -0.0100    -0.9380 ha         1 P1Z       0.119500
     25 H13          1.9130     0.0140     3.3440 ha         1 P1Z       0.119500
     26 H14         -0.5500     0.0280     3.3330 ha         1 P1Z       0.107500
     27 H15         -1.7760     0.0150     1.1940 ha         1 P1Z       0.105000
     28 H8           4.0600    -3.0820    -3.5220 ha         1 P1Z       0.107500
     29 H9           2.3000    -4.5960    -2.6980 ha         1 P1Z       0.105000
     30 H10          1.4580    -4.3780    -0.3930 ha         1 P1Z       0.107500
     31 H11          2.3740    -2.6410     1.0960 ha         1 P1Z       0.119500
     32 H7           4.9790    -1.3370    -2.0420 ha         1 P1Z       0.119500
     33 H211        10.1880     1.3150    -0.6780 hc         1 P1Z       0.001367
     34 H212        10.6180     3.0070    -0.3950 hc         1 P1Z       0.001367
     35 H213        10.5130     1.8810     0.9660 hc         1 P1Z       0.001367
     36 H201         8.5160     3.3680     0.8160 hc         1 P1Z       0.010700
     37 H202         8.1900     2.7160    -0.7960 hc         1 P1Z       0.010700
     38 H191         8.3190     1.1020     1.7860 hc         1 P1Z       0.032700
     39 H192         7.9760     0.4440     0.1810 hc         1 P1Z       0.032700
     40 H181         6.3070     2.5310     1.6320 hc         1 P1Z       0.025200
     41 H182         5.9640     1.8740     0.0260 hc         1 P1Z       0.025200
     42 H4           6.1760     0.1580     2.5380 hc         1 P1Z       0.081700
     43 C19          7.8810     1.3140     0.8190 c3         1 P1Z      -0.049400
@<TRIPOS>BOND
     1     1     2 ar  
     2     1     6 ar  
     3     1    23 1   
     4     2     3 ar  
     5     2    24 1   
     6     3     4 ar  
     7     3    16 1   
     8     4     5 ar  
     9     4    25 1   
    10     5     6 ar  
    11     5    26 1   
    12     6    27 1   
    13     7     8 ar  
    14     7    12 ar  
    15     7    28 1   
    16     8     9 ar  
    17     8    29 1   
    18     9    10 ar  
    19     9    30 1   
    20    10    11 ar  
    21    10    31 1   
    22    11    12 ar  
    23    11    20 1   
    24    12    32 1   
    25    13    14 1   
    26    13    33 1   
    27    13    34 1   
    28    13    35 1   
    29    14    36 1   
    30    14    37 1   
    31    14    43 1   
    32    15    18 1   
    33    15    40 1   
    34    15    41 1   
    35    15    43 1   
    36    16    17 1   
    37    16    20 1   
    38    17    18 1   
    39    17    21 2   
    40    18    19 1   
    41    18    42 1   
    42    19    20 1   
    43    19    22 2   
    44    38    43 1   
    45    39    43 1   
@<TRIPOS>SUBSTRUCTURE
     1 P1Z         1 TEMP              0 ****  ****    0 ROOT
