@<TRIPOS>MOLECULE
P20
   29    29     1     0     0
SMALL
bcc


@<TRIPOS>ATOM
      1 S            0.0000     0.0000     0.0000 sh         1 P20      -0.314900
      2 C1           1.8130     0.0000     0.0000 c3         1 P20       0.140700
      3 C2           2.3240     0.0000     1.4420 c3         1 P20      -0.130400
      4 C3           3.8260     0.1240     1.4440 ca         1 P20       0.043700
      5 C4           4.5970    -0.8320     0.8120 ca         1 P20      -0.023000
      6 C5           5.9820    -0.7200     0.8190 ca         1 P20      -0.122400
      7 C6           4.4300     1.1970     2.0740 ca         1 P20      -0.036600
      8 C7           5.8090     1.3130     2.0780 ca         1 P20      -0.067000
      9 C8           6.5860     0.3570     1.4530 ca         1 P20      -0.211000
     10 N9           6.7660    -1.6900     0.1850 nu         1 P20      -0.243600
     11 C10          7.8660    -1.3120    -0.5500 c2         1 P20       0.255100
     12 N11          8.6610    -2.2170    -1.0480 n2         1 P20      -0.690100
     13 N12          8.1270     0.0220    -0.7610 nz         1 P20       0.159400
     14 C13          1.9250    -1.2880     2.1160 c          1 P20       0.972600
     15 O14          0.6270    -1.6110     2.2310 o          1 P20      -0.848800
     16 O15          2.7730    -2.0290     2.5530 o          1 P20      -0.848800
     17 Cl16         3.4570     2.4000     2.8600 cl         1 P20       0.034600
     18 HS          -0.4430     0.4030    -1.1850 hs         1 P20       0.113800
     19 H11A         2.1740    -0.8840    -0.5110 h1         1 P20       0.005200
     20 H12          2.1740     0.8850    -0.5110 h1         1 P20       0.005200
     21 H2           1.8920     0.8370     1.9780 hc         1 P20       0.067700
     22 H4           4.1240    -1.6720     0.3190 ha         1 P20       0.146000
     23 H7           6.2800     2.1540     2.5720 ha         1 P20       0.116000
     24 H8           7.6650     0.4480     1.4580 ha         1 P20       0.075000
     25 HN9          6.5540    -2.6610     0.3040 hn         1 P20       0.330800
     26 H11          8.4720    -3.1880    -0.8960 hn         1 P20       0.375400
     27 H121         7.2640     0.5220    -0.8460 hn         1 P20       0.231133
     28 H122         8.6490     0.3860     0.0110 hn         1 P20       0.231133
     29 H123         8.6580     0.1290    -1.6020 hn         1 P20       0.231133
@<TRIPOS>BOND
     1     1     2 1   
     2     1    18 1   
     3     2     3 1   
     4     2    19 1   
     5     2    20 1   
     6     3     4 1   
     7     3    14 1   
     8     3    21 1   
     9     4     5 ar  
    10     4     7 ar  
    11     5     6 ar  
    12     5    22 1   
    13     6     9 ar  
    14     6    10 1   
    15     7     8 ar  
    16     7    17 1   
    17     8     9 ar  
    18     8    23 1   
    19     9    24 1   
    20    10    11 1   
    21    10    25 1   
    22    11    12 2   
    23    11    13 1   
    24    12    26 1   
    25    13    27 1   
    26    13    28 1   
    27    13    29 1   
    28    14    15 1   
    29    14    16 1   
@<TRIPOS>SUBSTRUCTURE
     1 P20         1 TEMP              0 ****  ****    0 ROOT
