@<TRIPOS>MOLECULE
molecule
   29    29     1     0     0
SMALL
bcc


@<TRIPOS>ATOM
      1 S            0.0000     0.0000     0.0000 sh         1 P20      -0.284900
      2 C1           1.8130     0.0000     0.0000 c3         1 P20       0.050700
      3 C2           2.3240     0.0000     1.4420 c3         1 P20      -0.149400
      4 C3           3.8260     0.1240     1.4440 ca         1 P20       0.040700
      5 C4           4.5970    -0.8320     0.8120 ca         1 P20      -0.065000
      6 C5           5.9820    -0.7200     0.8190 ca         1 P20       0.049600
      7 C6           4.4300     1.1970     2.0740 ca         1 P20       0.029400
      8 C7           5.8090     1.3130     2.0780 ca         1 P20      -0.096000
      9 C8           6.5860     0.3570     1.4530 ca         1 P20      -0.237000
     10 N9           6.7660    -1.6900     0.1850 nu         1 P20      -0.685600
     11 C10          7.8660    -1.3120    -0.5500 c2         1 P20       0.704100
     12 N11          8.6610    -2.2170    -1.0480 n2         1 P20      -0.816100
     13 N12          8.1270     0.0220    -0.7610 nz         1 P20      -0.809600
     14 C13          1.9250    -1.2880     2.1160 c          1 P20       0.889600
     15 O14          0.6270    -1.6110     2.2310 o          1 P20      -0.801300
     16 O15          2.7730    -2.0290     2.5530 o          1 P20      -0.801300
     17 Cl16         3.4570     2.4000     2.8600 cl         1 P20      -0.064400
     18 HS          -0.4430     0.3210    -1.2100 hs         1 P20       0.128800
     19 H11A         2.1740    -0.8840    -0.5110 h1         1 P20       0.029700
     20 H12          2.1740     0.8850    -0.5110 h1         1 P20       0.029700
     21 H2           1.8920     0.8370     1.9780 hc         1 P20       0.094700
     22 H4           4.1240    -1.6720     0.3190 ha         1 P20       0.180000
     23 H7           6.2800     2.1540     2.5720 ha         1 P20       0.147000
     24 H8           7.6650     0.4480     1.4580 ha         1 P20       0.087000
     25 HN9          6.5620    -2.6610     0.3150 hn         1 P20       0.519800
     26 H11          9.4610    -1.9430    -1.5830 hn         1 P20       0.426400
     27 H121         8.6080     0.1340    -1.6310 hn         1 P20       0.466800
     28 H122         7.2660     0.5310    -0.7880 hn         1 P20       0.466800
     29 H123         8.6980     0.3720    -0.0170 hn         1 P20       0.466800
@<TRIPOS>BOND
     1     1     2 1
     2     1    18 1
     3     2     3 1
     4     2    19 1
     5     2    20 1
     6     3     4 1
     7     3    14 1
     8     3    21 1
     9     4     5 ar
    10     4     7 ar
    11     5     6 ar
    12     5    22 1
    13     6     9 ar
    14     6    10 1
    15     7     8 ar
    16     7    17 1
    17     8     9 ar
    18     8    23 1
    19     9    24 1
    20    10    11 1
    21    10    25 1
    22    11    12 2
    23    11    13 1
    24    12    26 1
    25    13    27 1
    26    13    28 1
    27    14    15 1
    28    14    16 1
    29    29    13 1
@<TRIPOS>SUBSTRUCTURE
     1 P20         1 TEMP              0 ****  ****    0 ROOT
