@<TRIPOS>MOLECULE
P21
   60    62     1     0     0
SMALL
bcc


@<TRIPOS>ATOM
      1 Cl15         0.0000     0.0000     0.0000 cl         1 P21      -0.021400
      2 C11          1.7360     0.0000     0.0000 ca         1 P21      -0.019600
      3 C14          2.4260     0.0000     1.2000 ca         1 P21      -0.106500
      4 C9           3.8060    -0.0000     1.2060 ca         1 P21      -0.073000
      5 C13          2.4260    -0.0050    -1.2020 ca         1 P21      -0.106500
      6 C8           3.8040    -0.0060    -1.2090 ca         1 P21      -0.073000
      7 C5           4.5060     0.0010    -0.0020 ca         1 P21      -0.149600
      8 C1           5.9840     0.0010    -0.0020 c          1 P21       0.614700
      9 O7           6.5910     0.7530     0.7350 o          1 P21      -0.643100
     10 N2           6.6570    -0.8340    -0.8180 n          1 P21      -0.136800
     11 C12          5.9300    -1.6470    -1.7960 c3         1 P21       0.020000
     12 C19          5.9780    -0.9640    -3.1650 c3         1 P21      -0.072400
     13 C3           8.1170    -0.9260    -0.7300 c3         1 P21       0.042700
     14 C6           8.5150    -1.3840     0.6760 c3         1 P21       0.122800
     15 N4           9.9780    -1.4560     0.7720 n3         1 P21      -0.538600
     16 C18         10.5900    -0.1390     0.5560 c3         1 P21       0.140800
     17 C21         10.2540     0.3560    -0.8520 c3         1 P21      -0.014400
     18 C20          8.7340     0.4480    -1.0070 c3         1 P21      -0.071400
     19 C10         10.3930    -2.0240     2.0620 c3         1 P21       0.155800
     20 C16         11.8950    -2.3160     2.0300 c3         1 P21       0.020900
     21 C17         12.3210    -2.8990     3.3540 ca         1 P21      -0.089300
     22 C24         12.2950    -4.2670     3.5460 ca         1 P21      -0.098500
     23 C28         12.6840    -4.8010     4.7600 ca         1 P21      -0.099000
     24 C29         13.1020    -3.9690     5.7800 ca         1 P21      -0.105000
     25 C27         13.1300    -2.6000     5.5870 ca         1 P21      -0.099000
     26 C25         12.7430    -2.0650     4.3720 ca         1 P21      -0.098500
     27 C23          5.1070    -1.7430    -4.1530 c3         1 P21       0.212400
     28 O22          5.1510    -1.1050    -5.4320 os         1 P21      -0.416600
     29 C26          4.3670    -1.7560    -6.4330 c3         1 P21       0.255700
     30 H14          1.8820    -0.0010     2.1370 ha         1 P21       0.117500
     31 H13          1.8800    -0.0100    -2.1380 ha         1 P21       0.117500
     32 H9           4.3440     0.0020     2.1460 ha         1 P21       0.131500
     33 H8           4.3420    -0.0070    -2.1490 ha         1 P21       0.131500
     34 H121         4.8990    -1.7540    -1.4810 h1         1 P21       0.039700
     35 H122         6.3900    -2.6260    -1.8650 h1         1 P21       0.039700
     36 H3           8.4840    -1.6390    -1.4580 h1         1 P21       0.043700
     37 H191         5.6050     0.0490    -3.0760 hc         1 P21       0.038200
     38 H192         7.0000    -0.9420    -3.5230 hc         1 P21       0.038200
     39 H231         4.0850    -1.7640    -3.7950 h1         1 P21      -0.007800
     40 H232         5.4800    -2.7560    -4.2420 h1         1 P21      -0.007800
     41 H6C1         8.1420    -0.6740     1.4050 h1         1 P21       0.029200
     42 H6C2         8.0930    -2.3630     0.8680 h1         1 P21       0.029200
     43 H201         8.3430     1.1690    -0.2990 hc         1 P21       0.041700
     44 H202         8.4920     0.7560    -2.0170 hc         1 P21       0.041700
     45 H181        10.2030     0.5620     1.2860 h1         1 P21       0.016200
     46 H182        11.6650    -0.2200     0.6620 h1         1 P21       0.016200
     47 H101         9.8500    -2.9440     2.2430 h1         1 P21       0.012700
     48 H102        10.1790    -1.3160     2.8530 h1         1 P21       0.012700
     49 H211        10.6490    -0.3400    -1.5830 hc         1 P21       0.017200
     50 H212        10.6920     1.3350    -1.0040 hc         1 P21       0.017200
     51 H161        12.4380    -1.3960     1.8500 hc         1 P21       0.026700
     52 H162        12.1090    -3.0230     1.2390 hc         1 P21       0.026700
     53 H24         11.9670    -4.9210     2.7470 ha         1 P21       0.105500
     54 H25         12.7650    -0.9930     4.2210 ha         1 P21       0.105500
     55 H28         12.6630    -5.8740     4.9110 ha         1 P21       0.101500
     56 H29         13.4060    -4.3880     6.7320 ha         1 P21       0.102000
     57 H27         13.4600    -1.9470     6.3860 ha         1 P21       0.101500
     58 H261         4.4990    -1.2490    -7.3810 h1         1 P21      -0.011967
     59 H262         4.6860    -2.7870    -6.5270 h1         1 P21      -0.011967
     60 H263         3.3220    -1.7260    -6.1490 h1         1 P21      -0.011967
@<TRIPOS>BOND
     1     1     2 1   
     2     2     3 ar  
     3     2     5 ar  
     4     3     4 ar  
     5     3    30 1   
     6     4     7 ar  
     7     4    32 1   
     8     5     6 ar  
     9     5    31 1   
    10     6     7 ar  
    11     6    33 1   
    12     7     8 1   
    13     8     9 2   
    14     8    10 1   
    15    10    11 1   
    16    10    13 1   
    17    11    12 1   
    18    11    34 1   
    19    11    35 1   
    20    12    27 1   
    21    12    37 1   
    22    12    38 1   
    23    13    14 1   
    24    13    18 1   
    25    13    36 1   
    26    14    15 1   
    27    14    41 1   
    28    14    42 1   
    29    15    16 1   
    30    15    19 1   
    31    16    17 1   
    32    16    45 1   
    33    16    46 1   
    34    17    18 1   
    35    17    49 1   
    36    17    50 1   
    37    18    43 1   
    38    18    44 1   
    39    19    20 1   
    40    19    47 1   
    41    19    48 1   
    42    20    21 1   
    43    20    51 1   
    44    20    52 1   
    45    21    22 ar  
    46    21    26 ar  
    47    22    23 ar  
    48    22    53 1   
    49    23    24 ar  
    50    23    55 1   
    51    24    25 ar  
    52    24    56 1   
    53    25    26 ar  
    54    25    57 1   
    55    26    54 1   
    56    27    28 1   
    57    27    39 1   
    58    27    40 1   
    59    28    29 1   
    60    29    58 1   
    61    29    59 1   
    62    29    60 1   
@<TRIPOS>SUBSTRUCTURE
     1 P21         1 TEMP              0 ****  ****    0 ROOT
