@<TRIPOS>MOLECULE
molecule
   60    62     1     0     0
SMALL
bcc


@<TRIPOS>ATOM
      1 Cl15         0.0000     0.0000     0.0000 cl         1 P21      -0.104400
      2 C11          1.7360     0.0000     0.0000 ca         1 P21       0.044400
      3 C14          2.4260     0.0000     1.2000 ca         1 P21      -0.131500
      4 C9           3.8060    -0.0000     1.2060 ca         1 P21      -0.092500
      5 C13          2.4260    -0.0050    -1.2020 ca         1 P21      -0.131500
      6 C8           3.8040    -0.0060    -1.2090 ca         1 P21      -0.092500
      7 C5           4.5060     0.0010    -0.0020 ca         1 P21      -0.142600
      8 C1           5.9840     0.0010    -0.0020 c          1 P21       0.678700
      9 O7           6.5910     0.7530     0.7350 o          1 P21      -0.601100
     10 N2           6.6570    -0.8340    -0.8180 n          1 P21      -0.481800
     11 C12          5.9300    -1.6470    -1.7960 c3         1 P21       0.090000
     12 C19          5.9780    -0.9640    -3.1650 c3         1 P21      -0.112400
     13 C3           8.1170    -0.9260    -0.7300 c3         1 P21       0.127700
     14 C6           8.5150    -1.3840     0.6760 c3         1 P21       0.144800
     15 N4           9.9780    -1.4560     0.7720 n3         1 P21      -0.734600
     16 C18         10.5900    -0.1390     0.5560 c3         1 P21       0.157800
     17 C21         10.2540     0.3560    -0.8520 c3         1 P21      -0.076400
     18 C20          8.7340     0.4480    -1.0070 c3         1 P21      -0.106400
     19 C10         10.3930    -2.0240     2.0620 c3         1 P21       0.169800
     20 C16         11.8950    -2.3160     2.0300 c3         1 P21      -0.037100
     21 C17         12.3210    -2.8990     3.3540 ca         1 P21      -0.084300
     22 C24         12.2950    -4.2670     3.5460 ca         1 P21      -0.124500
     23 C28         12.6840    -4.8010     4.7600 ca         1 P21      -0.126500
     24 C29         13.1020    -3.9690     5.7800 ca         1 P21      -0.131000
     25 C27         13.1300    -2.6000     5.5870 ca         1 P21      -0.126500
     26 C25         12.7430    -2.0650     4.3720 ca         1 P21      -0.124500
     27 C23          5.1070    -1.7430    -4.1530 c3         1 P21       0.135400
     28 O22          5.1510    -1.1050    -5.4320 os         1 P21      -0.428600
     29 C26          4.3670    -1.7560    -6.4330 c3         1 P21       0.129700
     30 H14          1.8820    -0.0010     2.1370 ha         1 P21       0.148500
     31 H13          1.8800    -0.0100    -2.1380 ha         1 P21       0.148500
     32 H9           4.3440     0.0020     2.1460 ha         1 P21       0.156500
     33 H8           4.3420    -0.0070    -2.1490 ha         1 P21       0.156500
     34 H121         4.8990    -1.7540    -1.4810 h1         1 P21       0.060700
     35 H122         6.3900    -2.6260    -1.8650 h1         1 P21       0.060700
     36 H3           8.4840    -1.6390    -1.4580 h1         1 P21       0.069700
     37 H191         5.6050     0.0490    -3.0760 hc         1 P21       0.065700
     38 H192         7.0000    -0.9420    -3.5230 hc         1 P21       0.065700
     39 H231         4.0850    -1.7640    -3.7950 h1         1 P21       0.024200
     40 H232         5.4800    -2.7560    -4.2420 h1         1 P21       0.024200
     41 H6C1         8.1420    -0.6740     1.4050 h1         1 P21       0.050700
     42 H6C2         8.0930    -2.3630     0.8680 h1         1 P21       0.050700
     43 H201         8.3430     1.1690    -0.2990 hc         1 P21       0.064200
     44 H202         8.4920     0.7560    -2.0170 hc         1 P21       0.064200
     45 H181        10.2030     0.5620     1.2860 h1         1 P21       0.038700
     46 H182        11.6650    -0.2200     0.6620 h1         1 P21       0.038700
     47 H101         9.8500    -2.9440     2.2430 h1         1 P21       0.038200
     48 H102        10.1790    -1.3160     2.8530 h1         1 P21       0.038200
     49 H211        10.6490    -0.3400    -1.5830 hc         1 P21       0.047700
     50 H212        10.6920     1.3350    -1.0040 hc         1 P21       0.047700
     51 H161        12.4380    -1.3960     1.8500 hc         1 P21       0.056200
     52 H162        12.1090    -3.0230     1.2390 hc         1 P21       0.056200
     53 H24         11.9670    -4.9210     2.7470 ha         1 P21       0.130500
     54 H25         12.7650    -0.9930     4.2210 ha         1 P21       0.130500
     55 H28         12.6630    -5.8740     4.9110 ha         1 P21       0.128500
     56 H29         13.4060    -4.3880     6.7320 ha         1 P21       0.128000
     57 H27         13.4600    -1.9470     6.3860 ha         1 P21       0.128500
     58 H261         4.4990    -1.2490    -7.3810 h1         1 P21       0.031367
     59 H262         4.6860    -2.7870    -6.5270 h1         1 P21       0.031367
     60 H263         3.3220    -1.7260    -6.1490 h1         1 P21       0.031367
@<TRIPOS>BOND
     1     1     2 1
     2     2     3 ar
     3     2     5 ar
     4     3     4 ar
     5     4     7 ar
     6     5     6 ar
     7     6     7 ar
     8     7     8 1
     9     8     9 2
    10     8    10 1
    11    10    11 1
    12    10    13 1
    13    11    12 1
    14    12    27 1
    15    13    14 1
    16    13    18 1
    17    14    15 1
    18    15    16 1
    19    15    19 1
    20    16    17 1
    21    17    18 1
    22    19    20 1
    23    20    21 1
    24    21    22 ar
    25    21    26 ar
    26    22    23 ar
    27    23    24 ar
    28    24    25 ar
    29    25    26 ar
    30    27    28 1
    31    28    29 1
    32     3    30 1
    33     5    31 1
    34     4    32 1
    35     6    33 1
    36    11    34 1
    37    11    35 1
    38    13    36 1
    39    12    37 1
    40    12    38 1
    41    27    39 1
    42    27    40 1
    43    14    41 1
    44    14    42 1
    45    18    43 1
    46    18    44 1
    47    16    45 1
    48    16    46 1
    49    19    47 1
    50    19    48 1
    51    17    49 1
    52    17    50 1
    53    20    51 1
    54    20    52 1
    55    22    53 1
    56    26    54 1
    57    23    55 1
    58    24    56 1
    59    25    57 1
    60    29    58 1
    61    29    59 1
    62    29    60 1
@<TRIPOS>SUBSTRUCTURE
     1 P21         1 TEMP              0 ****  ****    0 ROOT
