@<TRIPOS>MOLECULE
molecule
   16    15     1     0     0
SMALL
bcc


@<TRIPOS>ATOM
      1 C6           0.0000     0.0000     0.0000 c3         1 P22      -0.096100
      2 C7           1.5310     0.0000     0.0000 c3         1 P22       0.161400
      3 O7           2.0070     0.0000     1.3470 os         1 P22      -0.557200
      4 PA           3.6160    -0.0000     1.2710 p5         1 P22       1.243800
      5 O1A          4.1210    -1.3760     0.6060 o          1 P22      -0.805000
      6 O2A          4.0700     1.1440     0.4480 o          1 P22      -0.805000
      7 O3A          4.2220     0.1330     2.7570 os         1 P22      -0.651800
      8 PB           5.7370     0.6550     2.5950 p5         1 P22       1.177900
      9 O1B          6.2770     1.1830     4.0170 o          1 P22      -0.919167
     10 O2B          5.7770     1.7590     1.6110 o          1 P22      -0.919167
     11 O3B          6.6690    -0.5540     2.0830 o          1 P22      -0.919167
     12 H61         -0.3610     0.0000    -1.0210 hc         1 P22       0.001367
     13 H62         -0.3610    -0.8850     0.5110 hc         1 P22       0.001367
     14 H63         -0.3610     0.8850     0.5110 hc         1 P22       0.001367
     15 H71          1.8920    -0.8850    -0.5110 h1         1 P22       0.042200
     16 H72          1.8920     0.8850    -0.5110 h1         1 P22       0.042200
@<TRIPOS>BOND
     1     1     2 1
     2     1    12 1
     3     1    13 1
     4     1    14 1
     5     2     3 1
     6     2    15 1
     7     2    16 1
     8     3     4 1
     9     4     5 1
    10     4     6 1
    11     4     7 1
    12     7     8 1
    13     8     9 1
    14     8    10 1
    15     8    11 1
@<TRIPOS>SUBSTRUCTURE
     1 P22         1 TEMP              0 ****  ****    0 ROOT
