@<TRIPOS>MOLECULE
molecule
   19    18     1     0     0
SMALL
bcc


@<TRIPOS>ATOM
      1 C5           0.0000     0.0000     0.0000 c3         1 P23      -0.091100
      2 C6           1.5290     0.0000     0.0000 c3         1 P23      -0.092400
      3 C7           2.0400     0.0000     1.4420 c3         1 P23       0.166400
      4 O7           3.4680    -0.0000     1.4420 os         1 P23      -0.558200
      5 PA           3.9350     0.0000     2.9840 p5         1 P23       1.271800
      6 O1A          3.3110     1.1430     3.6860 o          1 P23      -0.816000
      7 O2A          3.4750    -1.3750     3.6820 o          1 P23      -0.816000
      8 O3A          5.5370     0.1330     3.0590 os         1 P23      -0.657800
      9 PB           5.9000     0.5250     4.5790 p5         1 P23       1.197900
     10 O1B          7.4740     0.2930     4.8310 o          1 P23      -0.925167
     11 O2B          5.5380     2.0720     4.8330 o          1 P23      -0.925167
     12 O3B          5.1210    -0.3240     5.5060 o          1 P23      -0.925167
     13 H51         -0.3610    -0.0330    -1.0210 hc         1 P23       0.010367
     14 H52         -0.3610     0.9010     0.4820 hc         1 P23       0.010367
     15 H53         -0.3610    -0.8680     0.5390 hc         1 P23       0.010367
     16 H61          1.8910     0.8840    -0.5110 hc         1 P23       0.024700
     17 H62          1.8910    -0.8840    -0.5110 hc         1 P23       0.024700
     18 H71          1.6790    -0.8840     1.9530 h1         1 P23       0.044700
     19 H72          1.6790     0.8850     1.9530 h1         1 P23       0.044700
@<TRIPOS>BOND
     1     1     2 1
     2     1    13 1
     3     1    14 1
     4     1    15 1
     5     2     3 1
     6     2    16 1
     7     2    17 1
     8     3     4 1
     9     3    18 1
    10     3    19 1
    11     4     5 1
    12     5     6 1
    13     5     7 1
    14     5     8 1
    15     8     9 1
    16     9    10 1
    17     9    11 1
    18     9    12 1
@<TRIPOS>SUBSTRUCTURE
     1 P23         1 TEMP              0 ****  ****    0 ROOT
