@<TRIPOS>MOLECULE
molecule
   28    27     1     0     0
SMALL
bcc


@<TRIPOS>ATOM
      1 N1           0.0000     0.0000     0.0000 nz         1 P24      -0.808600
      2 C2           1.4680     0.0000     0.0000 c3         1 P24       0.090800
      3 C3           1.9800     0.0000     1.4420 c3         1 P24       0.123800
      4 N4           3.4490     0.0000     1.4420 n7         1 P24      -0.780200
      5 C5           3.8720    -0.0000     2.8480 c3         1 P24       0.150800
      6 C6           5.3990    -0.0010     2.9210 c3         1 P24      -0.076400
      7 C7           5.8400     0.0010     4.3850 c3         1 P24      -0.112400
      8 C8           7.3670    -0.0000     4.4600 c3         1 P24       0.095800
      9 N9           7.7910     0.0000     5.8660 nz         1 P24      -0.809600
     10 HN11        -0.3340    -0.0010    -0.9440 hn         1 P24       0.463467
     11 HN12        -0.3340    -0.8160     0.4730 hn         1 P24       0.463467
     12 H21          1.8290    -0.8840    -0.5110 hx         1 P24       0.123200
     13 H22          1.8290     0.8840    -0.5110 hx         1 P24       0.123200
     14 H31          1.6190    -0.8840     1.9530 h1         1 P24       0.058200
     15 H32          1.6190     0.8840     1.9530 h1         1 P24       0.058200
     16 HN4          3.7820     0.8300     0.9930 hn         1 P24       0.370800
     17 H51          3.4870     0.8840     3.3410 h1         1 P24       0.050700
     18 H52          3.4870    -0.8850     3.3400 h1         1 P24       0.050700
     19 H61          5.7840    -0.8860     2.4290 hc         1 P24       0.072200
     20 H62          5.7850     0.8830     2.4270 hc         1 P24       0.072200
     21 H71          5.4550     0.8870     4.8770 hc         1 P24       0.068700
     22 H72          5.4540    -0.8820     4.8790 hc         1 P24       0.068700
     23 H81          7.7520    -0.8850     3.9680 hx         1 P24       0.117700
     24 H82          7.7530     0.8840     3.9660 hx         1 P24       0.117700
     25 HN91         7.4340    -0.8160     6.3220 hn         1 P24       0.462467
     26 HN92         8.7900    -0.0000     5.9140 hn         1 P24       0.462467
     27 H13         -0.3340     0.8180     0.4710 hn         1 P24       0.463467
     28 H93          7.4450     0.8240     6.3180 hn         1 P24       0.462467
@<TRIPOS>BOND
     1     1     2 1
     2     1    10 1
     3     1    11 1
     4     2     3 1
     5     2    12 1
     6     2    13 1
     7     3     4 1
     8     3    14 1
     9     3    15 1
    10     4     5 1
    11     4    16 1
    12     5     6 1
    13     5    17 1
    14     5    18 1
    15     6     7 1
    16     6    19 1
    17     6    20 1
    18     7     8 1
    19     7    21 1
    20     7    22 1
    21     8     9 1
    22     8    23 1
    23     8    24 1
    24     9    25 1
    25     9    26 1
    26    27     1 1
    27    28     9 1
@<TRIPOS>SUBSTRUCTURE
     1 P24         1 TEMP              0 ****  ****    0 ROOT
