@<TRIPOS>MOLECULE
molecule
   25    24     1     0     0
SMALL
bcc


@<TRIPOS>ATOM
      1 C4           0.0000     0.0000     0.0000 c3         1 P25      -0.086400
      2 CM4          1.5290     0.0000     0.0000 c3         1 P25      -0.092100
      3 C5          -0.5110     0.0000     1.4430 c3         1 P25      -0.082400
      4 C6          -2.0410     0.0000     1.4420 c3         1 P25      -0.088400
      5 C7          -2.5500     0.0010     2.8850 c3         1 P25       0.166400
      6 O7          -3.9790     0.0000     2.8850 os         1 P25      -0.556200
      7 PA          -4.4450     0.0010     4.4260 p5         1 P25       1.266800
      8 O1A         -3.8210    -1.1430     5.1300 o          1 P25      -0.814000
      9 O2A         -3.9850     1.3770     5.1260 o          1 P25      -0.814000
     10 O3A         -6.0480    -0.1310     4.5030 os         1 P25      -0.656800
     11 PB          -6.4100    -0.5230     6.0220 p5         1 P25       1.196900
     12 O1B         -5.6300     0.3250     6.9500 o          1 P25      -0.924833
     13 O2B         -7.9830    -0.2900     6.2750 o          1 P25      -0.924833
     14 O3B         -6.0490    -2.0720     6.2770 o          1 P25      -0.924833
     15 H41         -0.3610    -0.8840    -0.5110 hc         1 P25       0.029700
     16 H42         -0.3610     0.8840    -0.5110 hc         1 P25       0.029700
     17 HM41         1.8900    -0.8850     0.5100 hc         1 P25       0.017367
     18 HM42         1.8900     0.0000    -1.0210 hc         1 P25       0.017367
     19 HM43         1.8900     0.8840     0.5110 hc         1 P25       0.017367
     20 H51         -0.1500     0.8840     1.9530 hc         1 P25       0.038700
     21 H52         -0.1500    -0.8850     1.9530 hc         1 P25       0.038700
     22 H61         -2.4020     0.8840     0.9310 hc         1 P25       0.027200
     23 H62         -2.4020    -0.8850     0.9320 hc         1 P25       0.027200
     24 H71         -2.1890    -0.8830     3.3960 h1         1 P25       0.045700
     25 H72         -2.1890     0.8860     3.3950 h1         1 P25       0.045700
@<TRIPOS>BOND
     1     1     2 1
     2     1     3 1
     3     1    15 1
     4     1    16 1
     5     2    17 1
     6     2    18 1
     7     2    19 1
     8     3     4 1
     9     3    20 1
    10     3    21 1
    11     4     5 1
    12     4    22 1
    13     4    23 1
    14     5     6 1
    15     5    24 1
    16     5    25 1
    17     6     7 1
    18     7     8 1
    19     7     9 1
    20     7    10 1
    21    10    11 1
    22    11    12 1
    23    11    13 1
    24    11    14 1
@<TRIPOS>SUBSTRUCTURE
     1 P25         1 TEMP              0 ****  ****    0 ROOT
