@<TRIPOS>MOLECULE
P26
   52    55     1     0     0
SMALL
bcc


@<TRIPOS>ATOM
      1 O2         -0.0220    0.1320   -0.0390 o         1 P26     -0.829800
      2 C22         1.2410    0.1100    0.0060 c         1 P26      0.906200
      3 O1          1.9140    0.1310    1.0750 o         1 P26     -0.829800
      4 C19         1.9990    0.0600   -1.3130 ca        1 P26     -0.109600
      5 C18         1.3060    0.0440   -2.5280 ca        1 P26     -0.117000
      6 C17         1.9970    0.0100   -3.7370 ca        1 P26     -0.129500
      7 C20         3.3970    0.0350   -1.3260 ca        1 P26     -0.117000
      8 C21         4.0950    0.0020   -2.5310 ca        1 P26     -0.129500
      9 C16         3.3960   -0.0060   -3.7440 ca        1 P26     -0.164300
     10 C13         4.1460   -0.0480   -5.0490 c3        1 P26      0.451200
     11 O4          5.4010    0.6560   -4.9610 os        1 P26     -0.436600
     12 C15         5.2250    2.0040   -5.3990 c3        1 P26      0.108400
     13 C14         3.9000    2.0030   -6.1600 c3        1 P26      0.108400
     14 O3          3.4360    0.6540   -6.0890 os        1 P26     -0.436600
     15 C10         4.4090   -1.4620   -5.5090 ca        1 P26     -0.067300
     16 C9          3.4430   -2.1270   -6.2800 ca        1 P26     -0.080000
     17 C8          3.6840   -3.4360   -6.6700 ca        1 P26     -0.089300
     18 C01         2.7930   -4.3370   -7.4810 c3        1 P26     -0.004700
     19 C2          2.5340   -3.7460   -8.8570 c3        1 P26     -0.081100
     20 C1          1.4700   -4.5670   -6.7680 c3        1 P26     -0.081100
     21 C11         5.5920   -2.1080   -5.1420 ca        1 P26     -0.099000
     22 C12         5.8320   -3.4280   -5.5370 ca        1 P26     -0.127000
     23 C7          4.8780   -4.0880   -6.2980 ca        1 P26     -0.080300
     24 C02         4.9200   -5.4990   -6.8210 c3        1 P26     -0.006700
     25 C6          6.1060   -5.6980   -7.7480 c3        1 P26     -0.079600
     26 C5          4.9950   -6.4940   -5.6750 c3        1 P26     -0.079600
     27 C3          3.5880   -5.6610   -7.5960 c3        1 P26     -0.068400
     28 H18         0.2050    0.0600   -2.5010 ha        1 P26      0.152500
     29 H17         1.4530    0.0030   -4.6930 ha        1 P26      0.117500
     30 H20         3.9280    0.0450   -0.3600 ha        1 P26      0.152500
     31 H21         5.1940   -0.0120   -2.5420 ha        1 P26      0.117500
     32 H15         5.2030    2.6720   -4.5020 h1        1 P26      0.051700
     33 H15A        6.1060    2.2430   -6.0440 h1        1 P26      0.051700
     34 H14         4.0130    2.2400   -7.2460 h1        1 P26      0.051700
     35 H14A        3.1360    2.6700   -5.6890 h1        1 P26      0.051700
     36 H9          2.5140   -1.6080   -6.5600 ha        1 P26      0.149000
     37 H2          3.4960   -3.5850   -9.4000 hc        1 P26      0.035700
     38 H2A         2.0130   -2.7630   -8.7580 hc        1 P26      0.035700
     39 H2B         1.8940   -4.4350   -9.4570 hc        1 P26      0.035700
     40 H1          1.6440   -5.0160   -5.7610 hc        1 P26      0.035700
     41 H1A         0.8260   -5.2560   -7.3640 hc        1 P26      0.035700
     42 H1B         0.9340   -3.5960   -6.6350 hc        1 P26      0.035700
     43 H11         6.3350   -1.5680   -4.5350 ha        1 P26      0.146000
     44 H12         6.7610   -3.9340   -5.2410 ha        1 P26      0.125000
     45 H6          6.1090   -6.7390   -8.1520 hc        1 P26      0.033867
     46 H6A         6.0580   -4.9820   -8.6030 hc        1 P26      0.033867
     47 H6B         7.0590   -5.5260   -7.1920 hc        1 P26      0.033867
     48 H5          4.9950   -7.5380   -6.0700 hc        1 P26      0.033867
     49 H5A         4.1210   -6.3670   -4.9920 hc        1 P26      0.033867
     50 H5B         5.9310   -6.3310   -5.0870 hc        1 P26      0.033867
     51 H3          3.7930   -5.8970   -8.6690 hc        1 P26      0.041200
     52 H3A         2.9940   -6.5060   -7.1700 hc        1 P26      0.041200
@<TRIPOS>BOND
     1    1    2 1   
     2    2    3 1   
     3    2    4 1   
     4    4    5 ar  
     5    4    7 ar  
     6    5    6 ar  
     7    5   28 1   
     8    6    9 ar  
     9    6   29 1   
    10    7    8 ar  
    11    7   30 1   
    12    8    9 ar  
    13    8   31 1   
    14    9   10 1   
    15   10   11 1   
    16   10   14 1   
    17   10   15 1   
    18   11   12 1   
    19   12   13 1   
    20   12   32 1   
    21   12   33 1   
    22   13   14 1   
    23   13   34 1   
    24   13   35 1   
    25   15   16 ar  
    26   15   21 ar  
    27   16   17 ar  
    28   16   36 1   
    29   17   18 1   
    30   17   23 ar  
    31   18   19 1   
    32   18   20 1   
    33   18   27 1   
    34   19   37 1   
    35   19   38 1   
    36   19   39 1   
    37   20   40 1   
    38   20   41 1   
    39   20   42 1   
    40   21   22 ar  
    41   21   43 1   
    42   22   23 ar  
    43   22   44 1   
    44   23   24 1   
    45   24   25 1   
    46   24   26 1   
    47   24   27 1   
    48   25   45 1   
    49   25   46 1   
    50   25   47 1   
    51   26   48 1   
    52   26   49 1   
    53   26   50 1   
    54   27   51 1   
    55   27   52 1   
@<TRIPOS>SUBSTRUCTURE
     1 P26         1 TEMP              0 ****  ****    0 ROOT
