@<TRIPOS>MOLECULE
molecule
   52    55     1     0     0
SMALL
bcc


@<TRIPOS>ATOM
      1 O2           0.0000     0.0000     0.0000 o          1 P26      -0.836800
      2 C22          1.2150     0.0000     0.0000 c          1 P26       0.880200
      3 O1           1.8880     0.0000     1.1680 o          1 P26      -0.836800
      4 C19          1.9540    -0.0050    -1.2780 ca         1 P26      -0.089600
      5 C18          1.2590    -0.0100    -2.4900 ca         1 P26      -0.110000
      6 C17          1.9560    -0.0140    -3.6800 ca         1 P26      -0.130500
      7 C20          3.3500     0.0010    -1.2810 ca         1 P26      -0.110000
      8 C21          4.0340    -0.0020    -2.4800 ca         1 P26      -0.130500
      9 C16          3.3390    -0.0140    -3.6770 ca         1 P26      -0.150300
     10 C13          4.0930    -0.0180    -4.9810 c3         1 P26       0.431200
     11 O4           5.3400     0.6720    -4.8200 os         1 P26      -0.415600
     12 C15          5.3280     1.7920    -5.7280 c3         1 P26       0.097900
     13 C14          3.8190     2.0100    -5.9970 c3         1 P26       0.097900
     14 O3           3.3190     0.6520    -5.9890 os         1 P26      -0.415600
     15 C10          4.3540    -1.4400    -5.4090 ca         1 P26      -0.075300
     16 C9           3.4390    -2.1010    -6.2040 ca         1 P26      -0.080000
     17 C8           3.6740    -3.4070    -6.6000 ca         1 P26      -0.091300
     18 C01          2.8430    -4.3380    -7.4560 c3         1 P26      -0.015700
     19 C2           3.0090    -3.9880    -8.9360 c3         1 P26      -0.078600
     20 C1           1.3680    -4.2540    -7.0540 c3         1 P26      -0.078600
     21 C11          5.5120    -2.0810    -5.0110 ca         1 P26      -0.096000
     22 C12          5.7500    -3.3830    -5.4050 ca         1 P26      -0.124000
     23 C7           4.8300    -4.0500    -6.1980 ca         1 P26      -0.085300
     24 C02          4.8540    -5.4560    -6.7570 c3         1 P26      -0.017700
     25 C6           5.7800    -5.5300    -7.9730 c3         1 P26      -0.078100
     26 C5           5.3100    -6.4460    -5.6830 c3         1 P26      -0.078100
     27 C3           3.3970    -5.7510    -7.1740 c3         1 P26      -0.063400
     28 H18          0.1790    -0.0890    -2.4950 ha         1 P26       0.150500
     29 H17          1.4180    -0.0130    -4.6200 ha         1 P26       0.117000
     30 H20          3.8940    -0.0750    -0.3470 ha         1 P26       0.150500
     31 H21          5.1170     0.0070    -2.4840 ha         1 P26       0.117000
     32 H15          5.8470     1.5440    -6.6460 h1         1 P26       0.055200
     33 H15A         5.7620     2.6670    -5.2590 h1         1 P26       0.055200
     34 H14          3.6630     2.4720    -6.9650 h1         1 P26       0.055200
     35 H14A         3.3670     2.5930    -5.2040 h1         1 P26       0.055200
     36 H9           2.5360    -1.5950    -6.5240 ha         1 P26       0.143000
     37 H2           2.8870    -4.8820    -9.5350 hc         1 P26       0.035533
     38 H2A          3.9970    -3.5750    -9.1010 hc         1 P26       0.035533
     39 H2B          2.2610    -3.2580    -9.2210 hc         1 P26       0.035533
     40 H1           1.2810    -4.3620    -5.9800 hc         1 P26       0.035533
     41 H1A          0.8150    -5.0460    -7.5430 hc         1 P26       0.035533
     42 H1B          0.9670    -3.2940    -7.3540 hc         1 P26       0.035533
     43 H11          6.2540    -1.5480    -4.4300 ha         1 P26       0.145000
     44 H12          6.6580    -3.8850    -5.0930 ha         1 P26       0.122000
     45 H6           6.7890    -5.7500    -7.6450 hc         1 P26       0.033867
     46 H6A          5.7680    -4.5800    -8.4930 hc         1 P26       0.033867
     47 H6B          5.4390    -6.3120    -8.6400 hc         1 P26       0.033867
     48 H5           5.1690    -7.4580    -6.0410 hc         1 P26       0.033867
     49 H5A          4.7270    -6.2960    -4.7820 hc         1 P26       0.033867
     50 H5B          6.3590    -6.2840    -5.4640 hc         1 P26       0.033867
     51 H3           2.8530    -6.2210    -6.3640 hc         1 P26       0.049200
     52 H3A          3.3700    -6.3590    -8.0700 hc         1 P26       0.049200
@<TRIPOS>BOND
     1     1     2 1
     2     2     3 1
     3     2     4 1
     4     4     5 ar
     5     4     7 ar
     6     5     6 ar
     7     6     9 ar
     8     7     8 ar
     9     8     9 ar
    10     9    10 1
    11    10    11 1
    12    10    14 1
    13    10    15 1
    14    11    12 1
    15    12    13 1
    16    13    14 1
    17    15    16 ar
    18    15    21 ar
    19    16    17 ar
    20    17    18 1
    21    17    23 ar
    22    18    19 1
    23    18    20 1
    24    18    27 1
    25    21    22 ar
    26    22    23 ar
    27    23    24 1
    28    24    25 1
    29    24    26 1
    30    24    27 1
    31     5    28 1
    32     6    29 1
    33     7    30 1
    34     8    31 1
    35    12    32 1
    36    12    33 1
    37    13    34 1
    38    13    35 1
    39    16    36 1
    40    19    37 1
    41    19    38 1
    42    19    39 1
    43    20    40 1
    44    20    41 1
    45    20    42 1
    46    21    43 1
    47    22    44 1
    48    25    45 1
    49    25    46 1
    50    25    47 1
    51    26    48 1
    52    26    49 1
    53    26    50 1
    54    27    51 1
    55    27    52 1
@<TRIPOS>SUBSTRUCTURE
     1 P26         1 TEMP              0 ****  ****    0 ROOT
