@<TRIPOS>MOLECULE
molecule
   65    69     1     0     0
SMALL
bcc


@<TRIPOS>ATOM
      1 C32          0.0000     0.0000     0.0000 c3         1 P27      -0.025600
      2 C33          1.5070     0.0000     0.0000 ca         1 P27      -0.137300
      3 C4A          2.1980     0.0000     1.1970 ca         1 P27      -0.139250
      4 C4B          2.1990     0.0020    -1.1970 ca         1 P27      -0.139250
      5 C5A          3.5790    -0.0000     1.1970 ca         1 P27      -0.084250
      6 C5B          3.5810     0.0060    -1.1960 ca         1 P27      -0.084250
      7 C36          4.2710    -0.0010     0.0010 ca         1 P27      -0.063300
      8 C37          5.7790     0.0000     0.0010 c3         1 P27       0.324200
      9 F38          6.2440     0.5590     1.1970 f          1 P27      -0.271050
     10 F39          6.2450     0.7560    -1.0800 f          1 P27      -0.271050
     11 P40          6.3870    -1.7120    -0.1450 p5         1 P27       0.985700
     12 O41          5.7460    -2.3980    -1.4530 o          1 P27      -0.878167
     13 O42          5.9600    -2.5480     1.1620 o          1 P27      -0.878167
     14 O43          7.8620    -1.7030    -0.2660 o          1 P27      -0.878167
     15 C1          -0.5090     1.4280    -0.1950 c3         1 P27       0.139000
     16 C12         -2.0320     1.4100    -0.3400 c3         1 P27      -0.025600
     17 C13         -2.6550     0.9260     0.9430 ca         1 P27      -0.137300
     18 C1A         -3.0850     1.8370     1.8890 ca         1 P27      -0.139250
     19 C1B         -2.8000    -0.4290     1.1730 ca         1 P27      -0.139250
     20 C2A         -3.6560     1.3930     3.0670 ca         1 P27      -0.084250
     21 C2B         -3.3680    -0.8720     2.3530 ca         1 P27      -0.084250
     22 C16         -3.7970     0.0390     3.2990 ca         1 P27      -0.063300
     23 C17         -4.4180    -0.4460     4.5830 c3         1 P27       0.324200
     24 F18         -3.8000    -1.6360     4.9820 f          1 P27      -0.271050
     25 F19         -4.2470     0.5230     5.5790 f          1 P27      -0.271050
     26 P20         -6.1980    -0.7410     4.3250 p5         1 P27       0.985700
     27 O21         -6.8850     0.5920     3.7400 o          1 P27      -0.878167
     28 O22         -6.3940    -1.9490     3.2770 o          1 P27      -0.878167
     29 O23         -6.8320    -1.0990     5.6130 o          1 P27      -0.878167
     30 C51          0.1070     2.0180    -1.4360 ca         1 P27      -0.054300
     31 C6A         -0.2100     1.4990    -2.6770 ca         1 P27      -0.128000
     32 C6B          0.9940     3.0720    -1.3330 ca         1 P27      -0.091000
     33 C55          1.2410     3.1020    -3.7150 ca         1 P27       0.077900
     34 C53          0.3520     2.0440    -3.8190 ca         1 P27       0.085900
     35 C54          1.5600     3.6150    -2.4710 ca         1 P27      -0.139000
     36 F56          0.0390     1.5400    -5.0330 f          1 P27      -0.147900
     37 F57          1.7960     3.6310    -4.8280 f          1 P27      -0.153900
     38 N61         -0.1400     2.2400     0.9660 na         1 P27       0.091900
     39 N62          0.6290     1.8320     2.0660 nc         1 P27      -0.068400
     40 N63          0.7490     2.8110     2.8920 nd         1 P27      -0.237400
     41 C7A          0.1000     3.8970     2.4280 ca         1 P27       0.026400
     42 C7B         -0.4740     3.5550     1.1910 ca         1 P27      -0.069200
     43 C8A         -0.0770     5.1930     2.9280 ca         1 P27      -0.052000
     44 C8B         -1.2150     4.4970     0.4850 ca         1 P27      -0.122000
     45 C9A         -0.8020     6.1050     2.2190 ca         1 P27      -0.177000
     46 C9B         -1.3730     5.7640     1.0000 ca         1 P27      -0.120000
     47 H321        -0.3610    -0.3870     0.9450 hc         1 P27       0.058200
     48 H322        -0.3610    -0.6250    -0.8070 hc         1 P27       0.058200
     49 H4A          1.6560     0.0000     2.1350 ha         1 P27       0.110250
     50 H4B          1.6580     0.0070    -2.1360 ha         1 P27       0.110250
     51 H5A          4.1210    -0.0030     2.1360 ha         1 P27       0.149750
     52 H5B          4.1230     0.0060    -2.1340 ha         1 P27       0.149750
     53 H121        -2.3860     2.4100    -0.5580 hc         1 P27       0.058200
     54 H122        -2.3100     0.7450    -1.1490 hc         1 P27       0.058200
     55 H1A         -3.0370     2.8980     1.6780 ha         1 P27       0.110250
     56 H1B         -2.5310    -1.1400     0.4020 ha         1 P27       0.110250
     57 H2A         -4.0090     2.1070     3.8010 ha         1 P27       0.149750
     58 H2B         -3.4620    -1.9340     2.5430 ha         1 P27       0.149750
     59 H6A         -0.9050     0.6720    -2.7570 ha         1 P27       0.156000
     60 H6B          1.2440     3.4750    -0.3590 ha         1 P27       0.161000
     61 H54          2.2550     4.4420    -2.3880 ha         1 P27       0.141000
     62 H8A          0.3630     5.4720     3.8780 ha         1 P27       0.129000
     63 H8B         -1.6620     4.2360    -0.4660 ha         1 P27       0.134000
     64 H9A         -0.9350     7.1060     2.6110 ha         1 P27       0.109000
     65 H9B         -1.9460     6.5010     0.4490 ha         1 P27       0.113000
@<TRIPOS>BOND
     1     1     2 1
     2     1    15 1
     3     1    47 1
     4     1    48 1
     5     2     3 ar
     6     2     4 ar
     7     3     5 ar
     8     3    49 1
     9     4     6 ar
    10     4    50 1
    11     5     7 ar
    12     5    51 1
    13     6     7 ar
    14     6    52 1
    15     7     8 1
    16     8     9 1
    17     8    10 1
    18     8    11 1
    19    11    12 1
    20    11    13 1
    21    11    14 1
    22    15    16 1
    23    15    30 1
    24    15    38 1
    25    16    17 1
    26    16    53 1
    27    16    54 1
    28    17    18 ar
    29    17    19 ar
    30    18    20 ar
    31    18    55 1
    32    19    21 ar
    33    19    56 1
    34    20    22 ar
    35    20    57 1
    36    21    22 ar
    37    21    58 1
    38    22    23 1
    39    23    24 1
    40    23    25 1
    41    23    26 1
    42    26    27 1
    43    26    28 1
    44    26    29 1
    45    30    31 ar
    46    30    32 ar
    47    31    34 ar
    48    31    59 1
    49    32    35 ar
    50    32    60 1
    51    33    34 ar
    52    33    35 ar
    53    33    37 1
    54    34    36 1
    55    35    61 1
    56    38    39 1
    57    38    42 1
    58    39    40 2
    59    40    41 1
    60    41    42 ar
    61    41    43 ar
    62    42    44 ar
    63    43    45 ar
    64    43    62 1
    65    44    46 ar
    66    44    63 1
    67    45    46 ar
    68    45    64 1
    69    46    65 1
@<TRIPOS>SUBSTRUCTURE
     1 P27         1 TEMP              0 ****  ****    0 ROOT
