@<TRIPOS>MOLECULE
P27
   65    67     1     0     0
SMALL
bcc


@<TRIPOS>ATOM
      1 C32         0.5430    0.0290    0.4270 c3        1 P27     -0.073000
      2 C33         1.9960   -0.0370    0.1180 ca        1 P27     -0.264000
      3 C4A         2.9760    0.2400    1.0820 ca        1 P27     -0.077500
      4 C4B         2.4290   -0.4550   -1.1520 ca        1 P27     -0.077500
      5 C5A         4.3280    0.1960    0.7640 ca        1 P27     -0.225500
      6 C5B         3.7760   -0.5040   -1.4760 ca        1 P27     -0.225500
      7 C36         4.7630   -0.1350   -0.5360 ca        1 P27      0.058000
      8 C37         6.1910   -0.2010   -0.8820 c2        1 P27     -0.186000
      9 F38         7.0250    0.6120   -0.1540 f         1 P27     -0.176750
     10 F39         6.5020    0.1080   -2.1840 f         1 P27     -0.176750
     11 P40         7.8180   -1.7840   -0.9230 p3        1 P27      2.464500
     12 O41         7.2280   -2.7560   -1.8840 o         1 P27     -1.168000
     13 O42         7.8640   -2.1840    0.5100 o         1 P27     -1.168000
     14 O43         8.9410   -0.9430   -1.4230 o         1 P27     -1.168000
     15 C1         -0.1700    1.3920    0.1790 c3        1 P27      0.141000
     16 C12        -1.7000    1.1230   -0.0180 c3        1 P27     -0.073000
     17 C13        -2.5430    0.7850    1.1410 ca        1 P27     -0.264000
     18 C1A        -3.3340    1.7780    1.7570 ca        1 P27     -0.077500
     19 C1B        -2.7540   -0.5490    1.5440 ca        1 P27     -0.077500
     20 C2A        -4.3300    1.4680    2.6480 ca        1 P27     -0.225500
     21 C2B        -3.7440   -0.8930    2.4310 ca        1 P27     -0.225500
     22 C16        -4.6250    0.1010    2.9830 ca        1 P27      0.058000
     23 C17        -5.7030   -0.2260    3.7640 c2        1 P27     -0.186000
     24 F18        -6.1540   -1.4430    4.1620 f         1 P27     -0.176750
     25 F19        -6.6270    0.5960    4.3300 f         1 P27     -0.176750
     26 P20        -8.4190   -0.9490    5.4810 p3        1 P27      2.464500
     27 O21        -8.8790    0.4140    5.8260 o         1 P27     -1.168000
     28 O22        -9.0530   -1.6330    4.3350 o         1 P27     -1.168000
     29 O23        -7.7250   -1.7380    6.5200 o         1 P27     -1.168000
     30 C51         0.3990    2.0210   -1.0990 ca        1 P27     -0.057000
     31 C6A        -0.3340    2.0720   -2.2850 ca        1 P27     -0.139000
     32 C6B         1.7010    2.5520   -1.0850 ca        1 P27     -0.067000
     33 C55         1.5000    3.2460   -3.3960 ca        1 P27      0.039000
     34 C53         0.2020    2.6850   -3.4320 ca        1 P27      0.018000
     35 C54         2.2490    3.1570   -2.2100 ca        1 P27     -0.139000
     36 F56        -0.5310    2.7420   -4.5740 f         1 P27     -0.124000
     37 F57         2.0110    3.8540   -4.4940 f         1 P27     -0.120000
     38 N61         0.0210    2.3650    1.2820 na        1 P27     -0.139000
     39 N62         0.5640    2.1110    2.4960 n2        1 P27      0.089000
     40 N63         0.5240    3.1150    3.2680 n2        1 P27     -0.115000
     41 C7A        -0.1130    4.1930    2.5930 ca        1 P27     -0.126000
     42 C7B        -0.4590    3.6900    1.2750 ca        1 P27     -0.013000
     43 C8A        -0.4230    5.5070    2.9520 ca        1 P27     -0.060000
     44 C8B        -1.1070    4.5140    0.3450 ca        1 P27     -0.105000
     45 C9A        -1.0610    6.3020    2.0120 ca        1 P27     -0.178000
     46 C9B        -1.3950    5.8120    0.7350 ca        1 P27     -0.128000
     47 H321        0.3530   -0.2930    1.4850 hc        1 P27      0.080500
     48 H322        0.0100   -0.7130   -0.2310 hc        1 P27      0.080500
     49 H4A         2.6710    0.4970    2.1070 ha        1 P27      0.091250
     50 H4B         1.6810   -0.7390   -1.9070 ha        1 P27      0.091250
     51 H5A         5.0880    0.4160    1.5270 ha        1 P27      0.120750
     52 H5B         4.1050   -0.8360   -2.4720 ha        1 P27      0.120750
     53 H121       -1.7630    0.2890   -0.7710 hc        1 P27      0.080500
     54 H122       -2.1310    2.0500   -0.4920 hc        1 P27      0.080500
     55 H1A        -3.1460    2.8330    1.4990 ha        1 P27      0.091250
     56 H1B        -2.1060   -1.3330    1.1190 ha        1 P27      0.091250
     57 H2A        -4.9340    2.2520    3.1200 ha        1 P27      0.120750
     58 H2B        -3.8950   -1.9350    2.7360 ha        1 P27      0.120750
     59 H6A        -1.3390    1.6300   -2.3730 ha        1 P27      0.156000
     60 H6B         2.3240    2.4520   -0.1770 ha        1 P27      0.183000
     61 H54         3.2790    3.5420   -2.1900 ha        1 P27      0.157000
     62 H8A        -0.1720    5.8870    3.9520 ha        1 P27      0.129000
     63 H8B        -1.3770    4.1340   -0.6500 ha        1 P27      0.145000
     64 H9A        -1.3240    7.3380    2.2670 ha        1 P27      0.106000
     65 H9B        -1.9090    6.4810    0.0300 ha        1 P27      0.110000
@<TRIPOS>BOND
     1    1    2 1   
     2    1   15 1   
     3    1   47 1   
     4    1   48 1   
     5    2    3 1   
     6    2    4 1   
     7    3    5 1   
     8    3   49 1   
     9    4    6 1   
    10    4   50 1   
    11    5    7 1   
    12    5   51 1   
    13    6    7 1   
    14    6   52 1   
    15    7    8 1   
    16    8    9 1   
    17    8   10 1   
    18   11   12 1   
    19   11   13 1   
    20   11   14 1   
    21   15   16 1   
    22   15   30 1   
    23   15   38 1   
    24   16   17 1   
    25   16   53 1   
    26   16   54 1   
    27   17   18 1   
    28   17   19 1   
    29   18   20 1   
    30   18   55 1   
    31   19   21 1   
    32   19   56 1   
    33   20   22 1   
    34   20   57 1   
    35   21   22 1   
    36   21   58 1   
    37   22   23 1   
    38   23   24 1   
    39   23   25 1   
    40   26   27 1   
    41   26   28 1   
    42   26   29 1   
    43   30   31 1   
    44   30   32 1   
    45   31   34 1   
    46   31   59 1   
    47   32   35 1   
    48   32   60 1   
    49   33   34 1   
    50   33   35 1   
    51   33   37 1   
    52   34   36 1   
    53   35   61 1   
    54   38   39 1   
    55   38   42 1   
    56   39   40 1   
    57   40   41 1   
    58   41   42 1   
    59   41   43 1   
    60   42   44 1   
    61   43   45 1   
    62   43   62 1   
    63   44   46 1   
    64   44   63 1   
    65   45   46 1   
    66   45   64 1   
    67   46   65 1   
@<TRIPOS>SUBSTRUCTURE
     1 P27         1 TEMP              0 ****  ****    0 ROOT
