@<TRIPOS>MOLECULE
molecule
   43    44     1     0     0
SMALL
bcc


@<TRIPOS>ATOM
      1 C1           0.0000     0.0000     0.0000 ca         1 P28      -0.050300
      2 C2           1.3850     0.0000     0.0000 ca         1 P28      -0.100500
      3 C3           2.0690     0.0000     1.2160 ca         1 P28      -0.152500
      4 C4           1.3580    -0.0010     2.4160 ca         1 P28       0.054100
      5 C5          -0.0360    -0.0010     2.4000 ca         1 P28      -0.152500
      6 C6          -0.7200    -0.0010     1.1840 ca         1 P28      -0.100500
      7 C7          -0.7410    -0.0000    -1.3160 c3         1 P28      -0.051100
      8 C8          -1.0350     1.4110    -1.8370 c3         1 P28       0.007700
      9 C9          -1.7430     1.3320    -3.1810 c          1 P28       0.882600
     10 O9          -1.2400     0.8100    -4.1710 o          1 P28      -0.835300
     11 O10         -2.9830     1.8770    -3.2040 o          1 P28      -0.835300
     12 N8          -1.8100     2.1660    -0.8850 ns         1 P28      -0.540900
     13 C81         -1.3840     3.3640    -0.3370 c          1 P28       0.670100
     14 C82         -2.3480     3.9720     0.6250 c3         1 P28      -0.184100
     15 O81         -0.3250     3.9340    -0.5740 o          1 P28      -0.629100
     16 O41          2.0260    -0.0020     3.6020 os         1 P28      -0.243200
     17 C1'          1.5870     0.8640     4.5880 ca         1 P28       0.101100
     18 C2'          1.2850     2.1710     4.2520 ca         1 P28      -0.038000
     19 C3'          0.8430     3.0450     5.2460 ca         1 P28      -0.191200
     20 N3           0.5340     4.3900     4.9010 no         1 P28       0.277700
     21 O31          0.1380     5.1690     5.7980 o          1 P28      -0.186250
     22 O32          0.6670     4.7540     3.7080 o          1 P28      -0.186250
     23 C4'          0.7110     2.5960     6.5610 ca         1 P28       0.218100
     24 O4'          0.2780     3.4500     7.5340 oh         1 P28      -0.470100
     25 C5'          1.0210     1.2740     6.8800 ca         1 P28      -0.191200
     26 N5           0.8920     0.7960     8.2140 no         1 P28       0.277700
     27 O51          0.4950     1.5850     9.1040 o          1 P28      -0.186250
     28 O52          1.1790    -0.3990     8.4590 o          1 P28      -0.186250
     29 C6'          1.4620     0.4010     5.8860 ca         1 P28      -0.038000
     30 H2           1.9320     0.0000    -0.9350 ha         1 P28       0.147000
     31 H3           3.1520    -0.0000     1.2280 ha         1 P28       0.129500
     32 H5          -0.5880    -0.0010     3.3320 ha         1 P28       0.129500
     33 H6          -1.8030    -0.0000     1.1660 ha         1 P28       0.147000
     34 H71         -0.1440    -0.5260    -2.0510 hc         1 P28       0.059700
     35 H72         -1.6790    -0.5270    -1.1870 hc         1 P28       0.059700
     36 H8          -0.0910     1.9210    -1.9830 h1         1 P28       0.071700
     37 HN8         -2.7020     1.8060    -0.6060 hn         1 P28       0.313500
     38 H821        -3.2590     4.2400     0.1040 hc         1 P28       0.050367
     39 H822        -1.9090     4.8600     1.0640 hc         1 P28       0.050367
     40 H823        -2.5770     3.2580     1.4080 hc         1 P28       0.050367
     41 H2'          1.5500     2.5540     3.2740 ha         1 P28       0.201500
     42 HO4         -0.6590     3.3870     7.6130 ho         1 P28       0.451000
     43 H6'          1.7050    -0.6270     6.1260 ha         1 P28       0.201500
@<TRIPOS>BOND
     1     1     2 ar
     2     1     6 ar
     3     1     7 1
     4     2     3 ar
     5     2    30 1
     6     3     4 ar
     7     3    31 1
     8     4     5 ar
     9     4    16 1
    10     5     6 ar
    11     5    32 1
    12     6    33 1
    13     7     8 1
    14     7    34 1
    15     7    35 1
    16     8     9 1
    17     8    12 1
    18     8    36 1
    19     9    10 1
    20     9    11 1
    21    12    13 1
    22    12    37 1
    23    13    14 1
    24    13    15 2
    25    14    38 1
    26    14    39 1
    27    14    40 1
    28    16    17 1
    29    17    18 ar
    30    17    29 ar
    31    18    19 ar
    32    18    41 1
    33    19    20 1
    34    19    23 ar
    35    20    21 1
    36    20    22 1
    37    23    24 1
    38    23    25 ar
    39    24    42 1
    40    25    26 1
    41    25    29 ar
    42    26    27 1
    43    26    28 1
    44    29    43 1
@<TRIPOS>SUBSTRUCTURE
     1 P28         1 TEMP              0 ****  ****    0 ROOT
