@<TRIPOS>MOLECULE
molecule
   41    44     1     0     0
SMALL
bcc


@<TRIPOS>ATOM
      1 N01          0.0000     0.0000     0.0000 nc         1 P29      -0.547100
      2 C02          1.3060     0.0000     0.0000 cd         1 P29       0.455500
      3 C03          1.7590     0.0000     1.3360 cd         1 P29      -0.263300
      4 C04          0.6180     0.0000     2.1530 cc         1 P29       0.497500
      5 N05         -0.4670     0.0000     1.3170 na         1 P29      -0.120600
      6 N06          0.4340    -0.0000     3.4760 nc         1 P29      -0.827000
      7 C07         -0.7930     0.0000     3.9750 cd         1 P29       0.929900
      8 N08         -1.8620     0.0020     3.1740 nd         1 P29      -0.837000
      9 C09         -1.7230     0.0020     1.8620 cc         1 P29       0.840400
     10 N10         -2.8270     0.0020     1.0500 nu         1 P29      -0.879900
     11 C11         -4.1680     0.0030     1.6390 c3         1 P29      -0.160200
     12 C12         -5.2150     0.0030     0.5230 c3         1 P29       0.124900
     13 C13         -6.5950     0.0040     1.1290 cc         1 P29      -0.294900
     14 N14         -7.3800     1.1000     1.3690 na         1 P29      -0.296900
     15 C15         -8.5310     0.6540     1.9170 cc         1 P29       0.423400
     16 N16         -8.4720    -0.6460     2.0140 nd         1 P29      -0.693000
     17 C17         -7.2950    -1.0730     1.5330 cd         1 P29       0.364200
     18 N18         -0.9690    -0.0000     5.3440 nu         1 P29      -0.734300
     19 C19          0.1360    -0.1190     6.1910 ca         1 P29       0.037600
     20 C20          0.1440     0.5290     7.4200 ca         1 P29      -0.137500
     21 C21          1.2380     0.4090     8.2550 ca         1 P29      -0.114000
     22 C22          2.3240    -0.3550     7.8690 ca         1 P29      -0.118000
     23 C23          2.3190    -1.0020     6.6460 ca         1 P29      -0.114000
     24 C24          1.2270    -0.8910     5.8090 ca         1 P29      -0.137500
     25 C25          3.1220    -0.0020     1.7740 ch         1 P29       0.259500
     26 N26          4.1980    -0.0130     2.1380 n1         1 P29      -0.395800
     27 H02          1.9420    -0.0290    -0.8760 h4         1 P29       0.071800
     28 HN10        -3.5060    -0.7290     1.1300 hn         1 P29       0.533800
     29 H111        -4.0940     0.1790     2.7060 h1         1 P29       0.157200
     30 H112        -4.7620     0.7870     1.1850 h1         1 P29       0.157200
     31 H121        -5.0900    -0.8820    -0.0890 hc         1 P29       0.064700
     32 H122        -5.0890     0.8880    -0.0900 hc         1 P29       0.064700
     33 HN14        -7.1390     2.0510     1.1720 hn         1 P29       0.302700
     34 H15         -9.3690     1.2680     2.2250 h5         1 P29       0.073100
     35 H17         -6.9660    -2.1030     1.4800 h4         1 P29       0.049100
     36 HN18        -0.5030    -0.6820     5.9090 hn         1 P29       0.516800
     37 H20         -0.7070     1.1270     7.7230 ha         1 P29       0.162500
     38 H21          1.2450     0.9130     9.2130 ha         1 P29       0.142000
     39 H22          3.1810    -0.4480     8.5250 ha         1 P29       0.137000
     40 H23          3.1710    -1.6000     6.3460 ha         1 P29       0.142000
     41 H24          1.2200    -1.4010     4.8540 ha         1 P29       0.162500
@<TRIPOS>BOND
     1     1     2 2
     2     1     5 1
     3     2     3 1
     4     2    27 1
     5     3    25 1
     6     3     4 2
     7     4     6 1
     8     4     5 1
     9     5     9 1
    10     6     7 2
    11     7    18 1
    12     7     8 1
    13     8     9 2
    14     9    10 1
    15    10    11 1
    16    10    28 1
    17    11    12 1
    18    11    29 1
    19    11    30 1
    20    12    13 1
    21    12    31 1
    22    12    32 1
    23    13    14 1
    24    13    17 2
    25    14    15 1
    26    14    33 1
    27    15    16 2
    28    15    34 1
    29    16    17 1
    30    17    35 1
    31    18    19 1
    32    18    36 1
    33    19    20 ar
    34    19    24 ar
    35    20    21 ar
    36    20    37 1
    37    21    22 ar
    38    21    38 1
    39    22    23 ar
    40    22    39 1
    41    23    24 ar
    42    23    40 1
    43    24    41 1
    44    25    26 3
@<TRIPOS>SUBSTRUCTURE
     1 P29         1 TEMP              0 ****  ****    0 ROOT
