@<TRIPOS>MOLECULE
P29
   41    47     1     0     0
SMALL
bcc


@<TRIPOS>ATOM
      1 N01          0.0000     0.0000     0.0000 n2         1 P29      -0.232000
      2 C02          1.3060     0.0000     0.0000 c2         1 P29       0.021000
      3 C03          1.7590     0.0000     1.3360 c2         1 P29      -0.180000
      4 C04          0.6180     0.0000     2.1530 c2         1 P29      -0.064000
      5 N05         -0.4670     0.0000     1.3170 na         1 P29       0.351000
      6 N06          0.4340    -0.0000     3.4760 n2         1 P29      -0.185000
      7 C07         -0.7930     0.0000     3.9750 c2         1 P29       0.090000
      8 N08         -1.8620     0.0020     3.1740 n2         1 P29      -0.200000
      9 C09         -1.7230     0.0020     1.8620 c2         1 P29       0.035000
     10 N10         -2.8270     0.0020     1.0500 nu         1 P29      -0.201000
     11 C11         -4.1680     0.0030     1.6390 DU         1 P29      -0.392000
     12 C12         -5.2150     0.0030     0.5230 DU         1 P29       0.172000
     13 C13         -6.5950     0.0040     1.1290 c2         1 P29      -0.403000
     14 N14         -7.3800     1.1000     1.3690 na         1 P29       0.371000
     15 C15         -8.5310     0.6540     1.9170 c2         1 P29      -0.256000
     16 N16         -8.4720    -0.6460     2.0140 n2         1 P29      -0.090000
     17 C17         -7.2950    -1.0730     1.5330 c2         1 P29      -0.092000
     18 N18         -0.9690    -0.0000     5.3440 nu         1 P29      -0.152000
     19 C19          0.1360    -0.1190     6.1910 c3         1 P29      -0.044000
     20 C20          0.1440     0.5290     7.4200 c2         1 P29      -0.129500
     21 C21          1.2380     0.4090     8.2550 c2         1 P29      -0.075000
     22 C22          2.3240    -0.3550     7.8690 c2         1 P29      -0.097000
     23 C23          2.3190    -1.0020     6.6460 c2         1 P29      -0.075000
     24 C24          1.2270    -0.8910     5.8090 c2         1 P29      -0.129500
     25 C25          3.1220    -0.0020     1.7740 c1         1 P29      -0.033000
     26 N26          4.1980    -0.0130     2.1380 n1         1 P29      -0.090000
     27 H02          1.9420    -0.0290    -0.8760 h4         1 P29       0.149000
     28 HN10        -3.5060    -0.7290     1.1300 DU         1 P29       0.274000
     29 H111        -4.0940     0.1790     2.7060 ha         1 P29       0.200000
     30 H112        -4.7620     0.7870     1.1850 DU         1 P29       0.122000
     31 H121        -5.0900    -0.8820    -0.0890 ha         1 P29       0.053500
     32 H122        -5.0890     0.8880    -0.0900 ha         1 P29       0.053500
     33 HN14        -7.1390     2.0510     1.1720 hn         1 P29       0.074000
     34 H15         -9.3690     1.2680     2.2250 h5         1 P29       0.164000
     35 H17         -6.9660    -2.1030     1.4800 h4         1 P29       0.145000
     36 HN18        -0.5030    -0.6820     5.9090 DU         1 P29       0.247000
     37 H20         -0.7070     1.1270     7.7230 ha         1 P29       0.134500
     38 H21          1.2450     0.9130     9.2130 ha         1 P29       0.110500
     39 H22          3.1810    -0.4480     8.5250 ha         1 P29       0.108000
     40 H23          3.1710    -1.6000     6.3460 ha         1 P29       0.110500
     41 H24          1.2200    -1.4010     4.8540 ha         1 P29       0.134500
@<TRIPOS>BOND
     1     1     2 1   
     2     1     5 1   
     3     2     3 1   
     4     2    27 1   
     5     3     4 1   
     6     3    25 1   
     7     4     5 1   
     8     4     6 1   
     9     5     9 1   
    10     6     7 1   
    11     7     8 1   
    12     7    18 1   
    13     8     9 1   
    14     9    10 1   
    15    10    11 1   
    16    10    28 1   
    17    11    12 1   
    18    11    28 1   
    19    11    29 1   
    20    11    30 1   
    21    12    13 1   
    22    12    30 1   
    23    12    31 1   
    24    12    32 1   
    25    13    14 1   
    26    13    17 1   
    27    14    15 1   
    28    14    33 1   
    29    15    16 1   
    30    15    34 1   
    31    16    17 1   
    32    17    35 1   
    33    18    19 1   
    34    18    36 1   
    35    19    20 1   
    36    19    24 1   
    37    19    36 1   
    38    20    21 1   
    39    20    37 1   
    40    21    22 1   
    41    21    38 1   
    42    22    23 1   
    43    22    39 1   
    44    23    24 1   
    45    23    40 1   
    46    24    41 1   
    47    25    26 1   
@<TRIPOS>SUBSTRUCTURE
     1 P29         1 TEMP              0 ****  ****    0 ROOT
