@<TRIPOS>MOLECULE
molecule
   27    26     1     0     0
SMALL
bcc


@<TRIPOS>ATOM
      1 O1           0.0000     0.0000     0.0000 o          1 P2A      -0.906500
      2 O2           2.0160    -1.3020    -0.7800 o          1 P2A      -0.906500
      3 P1           1.4790     0.0000     0.0000 p5         1 P2A       1.148900
      4 O3           2.0150     0.0000     1.5190 o          1 P2A      -0.906500
      5 O4           2.0170     1.3150    -0.7590 os         1 P2A      -0.528200
      6 C1           1.4160     1.3180    -2.0550 c3         1 P2A       0.165400
      7 C2           1.8870     2.5490    -2.8320 c3         1 P2A       0.150100
      8 C3           1.3440     2.4880    -4.2610 c3         1 P2A       0.123400
      9 O5           1.8860     3.5920    -5.0320 os         1 P2A      -0.423900
     10 C4           1.5460     3.7410    -6.3220 c          1 P2A       0.632100
     11 O6           0.7860     2.9560    -6.8410 o          1 P2A      -0.577000
     12 C5           2.1080     4.8870    -7.1230 c3         1 P2A      -0.140100
     13 O7           1.4000     3.7500    -2.1790 os         1 P2A      -0.397900
     14 C6           2.1050     4.8890    -2.2570 c          1 P2A       0.641100
     15 O8           3.1460     4.9150    -2.8700 o          1 P2A      -0.582000
     16 C7           1.5980     6.1370    -1.5790 c3         1 P2A      -0.141100
     17 H2           1.7040     0.4210    -2.5890 h1         1 P2A       0.058700
     18 H3           0.3380     1.3460    -1.9520 h1         1 P2A       0.058700
     19 H4           2.9700     2.5670    -2.8580 h1         1 P2A       0.076700
     20 H5           0.2630     2.5590    -4.2390 h1         1 P2A       0.058700
     21 H6           1.6350     1.5500    -4.7180 h1         1 P2A       0.058700
     22 H7           3.1900     4.8660    -7.0720 hc         1 P2A       0.057367
     23 H8           1.7930     4.7940    -8.1560 hc         1 P2A       0.057367
     24 H9           1.7450     5.8230    -6.7170 hc         1 P2A       0.057367
     25 H10          2.2550     6.9670    -1.8120 hc         1 P2A       0.054700
     26 H11          0.5980     6.3580    -1.9310 hc         1 P2A       0.054700
     27 H12          1.5780     5.9830    -0.5070 hc         1 P2A       0.054700
@<TRIPOS>BOND
     1     1     3 1
     2     2     3 1
     3     3     4 1
     4     3     5 1
     5     5     6 1
     6     6     7 1
     7     6    17 1
     8     6    18 1
     9     7     8 1
    10     7    13 1
    11     7    19 1
    12     8     9 1
    13     8    20 1
    14     8    21 1
    15     9    10 1
    16    10    11 2
    17    10    12 1
    18    12    22 1
    19    12    23 1
    20    12    24 1
    21    13    14 1
    22    14    15 2
    23    14    16 1
    24    16    25 1
    25    16    26 1
    26    16    27 1
@<TRIPOS>SUBSTRUCTURE
     1 P2A         1 TEMP              0 ****  ****    0 ROOT
