@<TRIPOS>MOLECULE
P2A
   27    26     1     0     0
SMALL
bcc


@<TRIPOS>ATOM
      1 O1          0.6110   -0.5190   -0.6170 o         1 P2A     -0.915833
      2 O2          1.6250   -0.5390   -2.9410 o         1 P2A     -0.915833
      3 P1          1.8630   -0.5770   -1.4460 p5        1 P2A      1.320900
      4 O3          2.9760   -1.4560   -0.9660 o         1 P2A     -0.915833
      5 O4          2.5080    1.0270   -1.2040 os        1 P2A     -0.557200
      6 C1          1.5790    2.0260   -1.2280 c3        1 P2A      0.234400
      7 C2          1.8390    2.9620   -2.4460 c3        1 P2A      0.077100
      8 C3          1.4330    2.2690   -3.7330 c3        1 P2A      0.040400
      9 O5          2.2820    2.6820   -4.8200 os        1 P2A     -0.402900
     10 C4          1.8710    3.6350   -5.6770 c         1 P2A      0.626100
     11 O6          0.7390    4.1350   -5.6110 o         1 P2A     -0.606000
     12 C5          2.9150    3.9820   -6.6930 c3        1 P2A     -0.154100
     13 O7          0.9730    4.1150   -2.2430 os        1 P2A     -0.427900
     14 C6          1.4580    5.3590   -2.3970 c         1 P2A      0.639100
     15 O8          2.6480    5.5770   -2.6630 o         1 P2A     -0.601000
     16 C7          0.4050    6.4090   -2.2130 c3        1 P2A     -0.154100
     17 H2          0.5290    1.6230   -1.2860 h1        1 P2A      0.006700
     18 H3          1.6760    2.6760   -0.3090 h1        1 P2A      0.006700
     19 H4          2.9120    3.2810   -2.4740 h1        1 P2A      0.076700
     20 H5          1.6610    1.1270   -3.6080 h1        1 P2A      0.150200
     21 H6          0.3590    2.4430   -3.9820 h1        1 P2A      0.150200
     22 H7          3.6330    4.7030   -6.2340 hc        1 P2A      0.053700
     23 H8          2.4330    4.4500   -7.5830 hc        1 P2A      0.053700
     24 H9          3.4720    3.0640   -7.0000 hc        1 P2A      0.053700
     25 H10        -0.2570    6.1420   -1.3540 hc        1 P2A      0.054367
     26 H11         0.8870    7.3970   -2.0290 hc        1 P2A      0.054367
     27 H12        -0.2130    6.4590   -3.1420 hc        1 P2A      0.054367
@<TRIPOS>BOND
     1    1    3 1   
     2    2    3 1   
     3    3    4 1   
     4    3    5 1   
     5    5    6 1   
     6    6    7 1   
     7    6   17 1   
     8    6   18 1   
     9    7    8 1   
    10    7   13 1   
    11    7   19 1   
    12    8    9 1   
    13    8   20 1   
    14    8   21 1   
    15    9   10 1   
    16   10   11 2   
    17   10   12 1   
    18   12   22 1   
    19   12   23 1   
    20   12   24 1   
    21   13   14 1   
    22   14   15 2   
    23   14   16 1   
    24   16   25 1   
    25   16   26 1   
    26   16   27 1   
@<TRIPOS>SUBSTRUCTURE
     1 P2A         1 TEMP              0 ****  ****    0 ROOT
