@<TRIPOS>MOLECULE
molecule
   45    48     1     0     0
SMALL
bcc


@<TRIPOS>ATOM
      1 C1           0.0000     0.0000     0.0000 ca         1 P2B       0.745200
      2 N2          -0.7020    -0.0000    -1.1960 nu         1 P2B      -0.765300
      3 C4          -0.0180    -0.1340    -2.4080 ca         1 P2B       0.033300
      4 N5           1.3310     0.0000     0.0000 nb         1 P2B      -0.846000
      5 C6           2.0100     0.0000     1.1370 ca         1 P2B       0.912900
      6 N7           3.3920    -0.0010     1.0960 nh         1 P2B      -0.680300
      7 N8           1.4010     0.0010     2.3130 nb         1 P2B      -0.789000
      8 C9           0.0690     0.0000     2.3930 cp         1 P2B       0.576800
      9 C10         -0.6050     0.0020     3.7140 cp         1 P2B      -0.144500
     10 C11         -0.6780     0.0070     1.2180 ca         1 P2B      -0.460600
     11 C13          1.1180    -0.9360    -2.4940 ca         1 P2B      -0.096000
     12 C15          1.7610    -1.0370    -3.7170 ca         1 P2B      -0.238300
     13 C17          1.2590    -0.3450    -4.8030 ca         1 P2B       0.395200
     14 N19          0.1800     0.4060    -4.6890 nb         1 P2B      -0.671000
     15 C20         -0.4660     0.5260    -3.5460 ca         1 P2B       0.385200
     16 C22          3.9420    -1.1440     1.8400 c3         1 P2B       0.136800
     17 C25          5.4710    -1.0720     1.8190 c3         1 P2B       0.134400
     18 O28          5.9230    -1.0410     0.4620 os         1 P2B      -0.425600
     19 C29          5.4080     0.0590    -0.2920 c3         1 P2B       0.134400
     20 C32          3.8780    -0.0010    -0.2920 c3         1 P2B       0.136800
     21 C35         -1.9970    -0.0040     3.7870 ca         1 P2B      -0.115000
     22 C37         -2.6220    -0.0030     5.0190 ca         1 P2B      -0.124000
     23 C39         -1.8720     0.0020     6.1790 ca         1 P2B      -0.135000
     24 C41         -0.4850     0.0070     6.1140 ca         1 P2B       0.095100
     25 O42          0.2500     0.0130     7.2580 oh         1 P2B      -0.520100
     26 C44          0.1510     0.0020     4.8840 ca         1 P2B      -0.106000
     27 HN2         -1.6990     0.0800    -1.1900 hn         1 P2B       0.460800
     28 H11         -1.7610     0.0060     1.2500 ha         1 P2B       0.145000
     29 H13          1.4900    -1.4670    -1.6260 ha         1 P2B       0.161000
     30 H15          2.6470    -1.6500    -3.8210 ha         1 P2B       0.140000
     31 H17          1.7590    -0.4180    -5.7610 h4         1 P2B       0.024100
     32 H20         -1.3480     1.1520    -3.4910 h4         1 P2B       0.022100
     33 H22          3.6180    -2.0670     1.3740 h1         1 P2B       0.062200
     34 H22A         3.5930    -1.1080     2.8650 h1         1 P2B       0.062200
     35 H25          5.8800    -1.9430     2.3160 h1         1 P2B       0.057450
     36 H25A         5.7970    -0.1730     2.3280 h1         1 P2B       0.057450
     37 H29          5.7710    -0.0010    -1.3110 h1         1 P2B       0.057450
     38 H29A         5.7320     0.9890     0.1590 h1         1 P2B       0.057450
     39 H32          3.4840     0.8630    -0.8120 h1         1 P2B       0.062200
     40 H32A         3.5530    -0.9080    -0.7880 h1         1 P2B       0.062200
     41 H35         -2.5870    -0.0080     2.8790 ha         1 P2B       0.134000
     42 H37         -3.7040    -0.0080     5.0750 ha         1 P2B       0.136000
     43 H39         -2.3670     0.0030     7.1430 ha         1 P2B       0.142000
     44 HO42         0.4540     0.9020     7.4960 ho         1 P2B       0.421000
     45 H44          1.2330     0.0060     4.8310 ha         1 P2B       0.167000
@<TRIPOS>BOND
     1     2     1 1
     2    10     1 ar
     3     1     4 ar
     4     2     3 1
     5     2    27 1
     6    15     3 ar
     7     3    11 ar
     8     4     5 ar
     9     7     5 ar
    10     5     6 1
    11    16     6 1
    12     6    20 1
    13     8     7 ar
    14    10     8 ar
    15     9     8 1
    16    21     9 ar
    17     9    26 ar
    18    10    28 1
    19    11    12 ar
    20    11    29 1
    21    13    12 ar
    22    12    30 1
    23    14    13 ar
    24    13    31 1
    25    15    14 ar
    26    15    32 1
    27    16    17 1
    28    16    33 1
    29    16    34 1
    30    17    18 1
    31    17    35 1
    32    17    36 1
    33    18    19 1
    34    20    19 1
    35    19    37 1
    36    19    38 1
    37    20    39 1
    38    20    40 1
    39    22    21 ar
    40    21    41 1
    41    22    23 ar
    42    22    42 1
    43    23    24 ar
    44    23    43 1
    45    24    26 ar
    46    24    25 1
    47    25    44 1
    48    26    45 1
@<TRIPOS>SUBSTRUCTURE
     1 P2B         1 TEMP              0 ****  ****    0 ROOT
