@<TRIPOS>MOLECULE
P2C
   29    30     1     0     0
SMALL
bcc


@<TRIPOS>ATOM
      1 Cl8          0.0000     0.0000     0.0000 cl         1 P2C      -0.037400
      2 C1           1.7360     0.0000     0.0000 ca         1 P2C       0.052900
      3 C2           2.4290     0.0000     1.2020 ca         1 P2C      -0.037900
      4 O9           1.7490     0.0010     2.3800 os         1 P2C      -0.099100
      5 O10          1.5360    -1.4060     2.7480 os         1 P2C      -0.059000
      6 O11          0.8020    -1.4060     4.0200 oh         1 P2C      -0.413000
      7 C3           3.8170     0.0050     1.2020 ca         1 P2C       0.052900
      8 Cl7          4.6850     0.0040     2.7060 cl         1 P2C      -0.037400
      9 C4           4.5090    -0.0010     0.0060 ca         1 P2C      -0.191000
     10 C6           2.4260    -0.0010    -1.1980 ca         1 P2C      -0.191000
     11 C5           3.8160    -0.0010    -1.1970 ca         1 P2C       0.146600
     12 N18          4.5150    -0.0000    -2.4090 nu         1 P2C      -0.164000
     13 C14          5.9010     0.0850    -2.4100 ca         1 P2C      -0.024400
     14 C15          6.5260     1.2910    -2.7080 ca         1 P2C      -0.132000
     15 C16          7.9040     1.3720    -2.7100 ca         1 P2C      -0.127000
     16 C17          8.6740     0.2580    -2.4140 ca         1 P2C      -0.130000
     17 C12          8.0740    -0.9450    -2.1160 ca         1 P2C      -0.058000
     18 C13          6.6790    -1.0430    -2.1050 ca         1 P2C      -0.093600
     19 C19          6.0290    -2.3270    -1.7870 c          1 P2C       0.967200
     20 O21          4.8240    -2.4390    -1.8910 o          1 P2C      -0.875300
     21 O20          6.7720    -3.3760    -1.3800 o          1 P2C      -0.875300
     22 H11          0.6450    -2.2940     4.2920 ho         1 P2C       0.390000
     23 H4           5.5930     0.0000     0.0060 ha         1 P2C       0.130500
     24 H6           1.8850    -0.0000    -2.1360 ha         1 P2C       0.130500
     25 H18          4.0150    -0.0310    -3.2750 hn         1 P2C       0.276800
     26 H15          5.9320     2.1600    -2.9650 ha         1 P2C       0.092000
     27 H16          8.3870     2.3130    -2.9440 ha         1 P2C       0.086000
     28 H17          9.7550     0.3340    -2.4180 ha         1 P2C       0.087000
     29 H12          8.6800    -1.8270    -1.9530 ha         1 P2C       0.133000
@<TRIPOS>BOND
     1     1     2 1   
     2     2     3 ar  
     3     2    10 ar  
     4     3     4 1   
     5     3     7 ar  
     6     4     5 1   
     7     5     6 1   
     8     6    22 1   
     9     7     8 1   
    10     7     9 ar  
    11     9    11 ar  
    12     9    23 1   
    13    10    11 ar  
    14    10    24 1   
    15    11    12 1   
    16    12    13 1   
    17    12    25 1   
    18    13    14 ar  
    19    13    18 ar  
    20    14    15 ar  
    21    14    26 1   
    22    15    16 ar  
    23    15    27 1   
    24    16    17 ar  
    25    16    28 1   
    26    17    18 ar  
    27    17    29 1   
    28    18    19 1   
    29    19    20 1   
    30    19    21 1   
@<TRIPOS>SUBSTRUCTURE
     1 P2C         1 TEMP              0 ****  ****    0 ROOT
