@<TRIPOS>MOLECULE
molecule
   15    14     1     0     0
SMALL
bcc


@<TRIPOS>ATOM
      1 C1           0.0000     0.0000     0.0000 c3         1 P2D      -0.194100
      2 C2           1.5070     0.0000     0.0000 c          1 P2D       0.550100
      3 C3           2.2600     0.0000     1.3050 c3         1 P2D      -0.288400
      4 C4           3.7420    -0.0000     1.0300 c          1 P2D       0.550100
      5 C5           4.7210    -0.0000     2.1760 c3         1 P2D      -0.194100
      6 O2           2.1100    -0.0000    -1.0460 o          1 P2D      -0.475100
      7 O4           4.1450    -0.0000    -0.1080 o          1 P2D      -0.475100
      8 H1          -0.3610     0.8850     0.5110 hc         1 P2D       0.060367
      9 H2          -0.3610    -0.8850     0.5110 hc         1 P2D       0.060367
     10 H3          -0.3610    -0.0000    -1.0210 hc         1 P2D       0.060367
     11 H4           1.9980    -0.8850     1.8730 hc         1 P2D       0.082700
     12 H5           1.9980     0.8850     1.8730 hc         1 P2D       0.082700
     13 H6           4.5670     0.8850     2.7820 hc         1 P2D       0.060367
     14 H7           5.7320    -0.0000     1.7870 hc         1 P2D       0.060367
     15 H8           4.5670    -0.8850     2.7820 hc         1 P2D       0.060367
@<TRIPOS>BOND
     1     7     4 2
     2     6     2 2
     3     4     3 1
     4     4     5 1
     5     2     1 1
     6     2     3 1
     7     1     8 1
     8     1     9 1
     9     1    10 1
    10     3    11 1
    11     3    12 1
    12     5    13 1
    13     5    14 1
    14     5    15 1
@<TRIPOS>SUBSTRUCTURE
     1 P2D         1 TEMP              0 ****  ****    0 ROOT
