@<TRIPOS>MOLECULE
P2D
   15    14     1     0     0
SMALL
bcc


@<TRIPOS>ATOM
      1 C1          0.4440    0.0050   -0.2310 c3        1 P2D     -0.204600
      2 C2          1.5610   -0.6040    0.5490 c         1 P2D      0.579600
      3 C3          2.0730    0.2220    1.7010 c3        1 P2D     -0.300400
      4 C4          3.4600    0.7500    1.4300 c         1 P2D      0.579600
      5 C5          4.5650   -0.2440    1.5560 c3        1 P2D     -0.204600
      6 O2          2.0310   -1.7150    0.2860 o         1 P2D     -0.527600
      7 O4          3.6460    1.9350    1.1430 o         1 P2D     -0.527600
      8 H1          0.7580    1.0060   -0.6200 hc        1 P2D      0.072033
      9 H2         -0.4460    0.1440    0.4310 hc        1 P2D      0.072033
     10 H3          0.1570   -0.6480   -1.0910 hc        1 P2D      0.072033
     11 H4          2.1070   -0.4220    2.6200 hc        1 P2D      0.086700
     12 H5          1.3780    1.0800    1.8960 hc        1 P2D      0.086700
     13 H6          5.5110    0.1550    1.1160 hc        1 P2D      0.072033
     14 H7          4.2820   -1.1930    1.0330 hc        1 P2D      0.072033
     15 H8          4.7370   -0.4700    2.6370 hc        1 P2D      0.072033
@<TRIPOS>BOND
     1    1    2 1   
     2    1    8 1   
     3    1    9 1   
     4    1   10 1   
     5    2    3 1   
     6    2    6 2   
     7    3    4 1   
     8    3   11 1   
     9    3   12 1   
    10    4    5 1   
    11    4    7 2   
    12    5   13 1   
    13    5   14 1   
    14    5   15 1   
@<TRIPOS>SUBSTRUCTURE
     1 P2D         1 TEMP              0 ****  ****    0 ROOT
