@<TRIPOS>MOLECULE
P2E
   56    56     1     0     0
SMALL
bcc


@<TRIPOS>ATOM
      1 C2         -0.5400   -0.4640    2.5640 c3        1 P2E     -0.197400
      2 C3          0.9030   -0.0340    2.4250 c3        1 P2E     -0.058400
      3 C4          1.0370    1.1730    1.5110 c3        1 P2E     -0.060200
      4 C5          2.4430    1.4290    1.1180 c2        1 P2E     -0.146200
      5 C6          3.3600    2.1020    1.8190 c2        1 P2E     -0.194200
      6 C7          3.1530    2.7170    3.1510 c3        1 P2E     -0.037200
      7 C8          4.1250    2.1490    4.1720 c3        1 P2E     -0.151700
      8 C9          5.5160    2.7370    4.1140 c         1 P2E      0.576100
      9 O3          6.1690    2.9660    3.0950 o         1 P2E     -0.542100
     10 C12         3.6400    2.3830    5.6150 c3        1 P2E     -0.061500
     11 C11         4.9210    2.5260    6.4650 c3        1 P2E      0.143100
     12 O4          4.7860    3.5110    7.4780 oh        1 P2E     -0.608800
     13 C10         6.0260    2.9890    5.5110 c3        1 P2E     -0.194400
     14 C13         2.7730    1.2650    6.0570 c2        1 P2E     -0.213200
     15 C14         1.4390    1.2690    6.1010 c2        1 P2E     -0.150200
     16 C15         0.5400    2.4270    5.7960 c3        1 P2E      0.187300
     17 O5         -0.1220    2.2450    4.5580 oh        1 P2E     -0.640800
     18 C16        -0.4670    2.6740    6.9230 c3        1 P2E     -0.095400
     19 C17        -1.2240    1.4350    7.3470 c3        1 P2E     -0.101400
     20 C18        -2.4580    1.7930    8.1470 c3        1 P2E     -0.068400
     21 C19        -3.1830    0.5480    8.6130 c3        1 P2E     -0.085400
     22 C20        -4.4400    0.8870    9.3710 c3        1 P2E     -0.088100
     23 O1         -1.0360   -2.4670    3.8180 o         1 P2E     -0.857800
     24 C1         -0.7600   -1.2390    3.8690 c         1 P2E      0.912600
     25 O2         -0.6660   -0.5940    4.9640 o         1 P2E     -0.857800
     26 H2         -1.2060    0.4380    2.5810 hc        1 P2E      0.028200
     27 H2A        -0.8410   -1.1000    1.6950 hc        1 P2E      0.028200
     28 H3          1.5150   -0.8840    2.0300 hc        1 P2E      0.042200
     29 H3A         1.3050    0.2340    3.4410 hc        1 P2E      0.042200
     30 H4          0.4230    1.0070    0.5860 hc        1 P2E      0.043700
     31 H4A         0.6030    2.0670    2.0390 hc        1 P2E      0.043700
     32 H5          2.7280    1.0010    0.1400 ha        1 P2E      0.101000
     33 H6          4.3830    2.2300    1.4220 ha        1 P2E      0.120000
     34 H7          2.1040    2.5300    3.5230 hc        1 P2E      0.066200
     35 H7A         3.2950    3.8290    3.0730 hc        1 P2E      0.066200
     36 H8          4.2260    1.0400    3.9910 hc        1 P2E      0.093700
     37 H12         3.0910    3.3640    5.6590 hc        1 P2E      0.068700
     38 H11         5.1920    1.5460    6.9460 h1        1 P2E      0.041700
     39 HO4         3.9640    3.3140    7.9450 ho        1 P2E      0.409000
     40 H10         6.9760    2.4290    5.6900 hc        1 P2E      0.080200
     41 H10A        6.2340    4.0810    5.6540 hc        1 P2E      0.080200
     42 H13         3.3170    0.3350    6.2980 ha        1 P2E      0.117000
     43 H14         0.8850    0.3290    6.3140 ha        1 P2E      0.191000
     44 H15         1.1250    3.3820    5.6460 h1        1 P2E      0.034700
     45 HO5        -0.4620    1.3270    4.5260 ho        1 P2E      0.468000
     46 H16         0.0770    3.1050    7.8020 hc        1 P2E      0.029200
     47 H16A       -1.1940    3.4480    6.5580 hc        1 P2E      0.029200
     48 H17        -1.5120    0.8330    6.4390 hc        1 P2E      0.077200
     49 H17A       -0.5570    0.7790    7.9670 hc        1 P2E      0.077200
     50 H18        -3.1480    2.4130    7.5170 hc        1 P2E      0.023200
     51 H18A       -2.1710    2.4170    9.0350 hc        1 P2E      0.023200
     52 H19        -3.4340   -0.0880    7.7230 hc        1 P2E      0.050200
     53 H19A       -2.5010   -0.0590    9.2650 hc        1 P2E      0.050200
     54 H20        -4.2050    1.5060   10.2710 hc        1 P2E      0.022367
     55 H20A       -5.1460    1.4650    8.7260 hc        1 P2E      0.022367
     56 H20B       -4.9550   -0.0450    9.7090 hc        1 P2E      0.022367
@<TRIPOS>BOND
     1    1    2 1   
     2    1   24 1   
     3    1   26 1   
     4    1   27 1   
     5    2    3 1   
     6    2   28 1   
     7    2   29 1   
     8    3    4 1   
     9    3   30 1   
    10    3   31 1   
    11    4    5 2   
    12    4   32 1   
    13    5    6 1   
    14    5   33 1   
    15    6    7 1   
    16    6   34 1   
    17    6   35 1   
    18    7    8 1   
    19    7   10 1   
    20    7   36 1   
    21    8    9 2   
    22    8   13 1   
    23   10   11 1   
    24   10   14 1   
    25   10   37 1   
    26   11   12 1   
    27   11   13 1   
    28   11   38 1   
    29   12   39 1   
    30   13   40 1   
    31   13   41 1   
    32   14   15 2   
    33   14   42 1   
    34   15   16 1   
    35   15   43 1   
    36   16   17 1   
    37   16   18 1   
    38   16   44 1   
    39   17   45 1   
    40   18   19 1   
    41   18   46 1   
    42   18   47 1   
    43   19   20 1   
    44   19   48 1   
    45   19   49 1   
    46   20   21 1   
    47   20   50 1   
    48   20   51 1   
    49   21   22 1   
    50   21   52 1   
    51   21   53 1   
    52   22   54 1   
    53   22   55 1   
    54   22   56 1   
    55   23   24 1   
    56   24   25 1   
@<TRIPOS>SUBSTRUCTURE
     1 P2E         1 TEMP              0 ****  ****    0 ROOT
