@<TRIPOS>MOLECULE
P2F
  101   104     1     0     0
SMALL
bcc


@<TRIPOS>ATOM
      1 O3           0.0000     0.0000     0.0000 o          1 P2F      -0.648100
      2 C15          1.2160     0.0000     0.0000 c          1 P2F       0.598700
      3 C25          1.9560     0.0000     1.2810 ca         1 P2F      -0.144600
      4 C24          3.3480    -0.0440     1.2820 ca         1 P2F      -0.116000
      5 C26          1.2600     0.0520     2.4900 ca         1 P2F      -0.053000
      6 C27          1.9530     0.0530     3.6910 ca         1 P2F       0.077600
      7 N2           1.2530     0.1040     4.9000 nh         1 P2F      -0.375900
      8 C30          0.2750     1.1700     5.1640 c3         1 P2F       0.221800
      9 C31         -1.0850     0.5480     5.4740 c3         1 P2F      -0.067400
     10 C32         -1.0230    -0.2700     6.7600 c3         1 P2F       0.000600
     11 C29         -0.1900    -1.5370     6.5290 c3         1 P2F      -0.002600
     12 S1           1.4970    -1.0430     6.0800 s6         1 P2F       0.957900
     13 O4           2.1700    -2.1030     5.4150 o          1 P2F      -0.578800
     14 O5           2.1120    -0.3330     7.1470 o          1 P2F      -0.578800
     15 C22          3.3400     0.0020     3.6960 ca         1 P2F      -0.028000
     16 C23          4.0410    -0.0430     2.4910 ca         1 P2F      -0.132600
     17 C28          5.5190    -0.0900     2.4960 c          1 P2F       0.611700
     18 N3           6.1680    -1.0050     1.7480 n          1 P2F      -0.145800
     19 C33          7.6250    -1.1290     1.8390 c3         1 P2F       0.033000
     20 C34          7.9820    -2.1420     2.9280 c3         1 P2F      -0.055900
     21 C35          9.5040    -2.2700     3.0250 c3         1 P2F      -0.000100
     22 C36          5.4150    -1.8760     0.8410 c3         1 P2F       0.033000
     23 C37          5.4860    -1.3160    -0.5810 c3         1 P2F      -0.055900
     24 C38          4.5710    -2.1330    -1.4970 c3         1 P2F      -0.000100
     25 O6           6.1510     0.6950     3.1750 o          1 P2F      -0.638100
     26 N1           1.8900    -0.0070    -1.1680 ns         1 P2F      -0.199900
     27 C11          1.1600     0.0790    -2.4350 c3         1 P2F       0.018700
     28 C14          1.0490     1.5440    -2.8610 c3         1 P2F       0.008900
     29 C19          0.2060     2.2950    -1.8630 ca         1 P2F      -0.083300
     30 C20          0.8000     2.8990    -0.7700 ca         1 P2F      -0.093500
     31 C21          0.0270     3.5880     0.1450 ca         1 P2F      -0.093000
     32 C16         -1.3420     3.6740    -0.0330 ca         1 P2F      -0.103000
     33 C17         -1.9360     3.0720    -1.1260 ca         1 P2F      -0.093000
     34 C18         -1.1610     2.3860    -2.0440 ca         1 P2F      -0.093500
     35 C10          1.9100    -0.7100    -3.5100 c3         1 P2F       0.178100
     36 O2           3.1910    -0.1170    -3.7280 oh         1 P2F      -0.595800
     37 C9           1.1090    -0.6860    -4.8130 c3         1 P2F       0.079800
     38 N4           1.7670    -1.5410    -5.8080 n7         1 P2F      -0.590200
     39 C7           1.0240    -1.5440    -7.0750 c3         1 P2F       0.164500
     40 C12         -0.3920    -2.0720    -6.8350 c3         1 P2F      -0.020100
     41 C13          0.9490    -0.1170    -7.6250 c3         1 P2F      -0.020100
     42 C3           1.7290    -2.4300    -8.0700 ca         1 P2F      -0.045300
     43 C2           2.8920    -3.0830    -7.7100 ca         1 P2F      -0.143000
     44 C1           3.5420    -3.8960    -8.6210 ca         1 P2F      -0.052000
     45 C6           3.0280    -4.0590    -9.8930 ca         1 P2F      -0.212000
     46 C5           1.8590    -3.4040   -10.2560 ca         1 P2F       0.155100
     47 C4           1.2070    -2.5920    -9.3390 ca         1 P2F      -0.142000
     48 O1           1.3520    -3.5620   -11.5070 os         1 P2F      -0.308900
     49 C8           2.0730    -4.4150   -12.3980 c3         1 P2F       0.244700
     50 H1           2.8880    -0.0840    -1.1690 hn         1 P2F       0.195500
     51 H24          3.8910    -0.0790     0.3450 ha         1 P2F       0.135000
     52 H26          0.1770     0.0730     2.4900 ha         1 P2F       0.131000
     53 H22          3.8780     0.0030     4.6360 ha         1 P2F       0.133000
     54 H301         0.6040     1.7580     6.0130 h1         1 P2F       0.030200
     55 H302         0.1900     1.8050     4.2900 h1         1 P2F       0.030200
     56 H311        -1.3750    -0.0990     4.6540 hc         1 P2F       0.030200
     57 H312        -1.8180     1.3370     5.5890 hc         1 P2F       0.030200
     58 H321        -0.5640     0.3230     7.5420 hc         1 P2F       0.028700
     59 H322        -2.0270    -0.5500     7.0560 hc         1 P2F       0.028700
     60 H291        -0.6260    -2.1160     5.7240 h1         1 P2F       0.073200
     61 H292        -0.1660    -2.1270     7.4370 h1         1 P2F       0.073200
     62 H331         8.0190    -1.4650     0.8880 h1         1 P2F       0.036950
     63 H332         8.0540    -0.1650     2.0880 h1         1 P2F       0.036950
     64 H361         5.8420    -2.8720     0.8590 h1         1 P2F       0.036950
     65 H362         4.3800    -1.9220     1.1600 h1         1 P2F       0.036950
     66 H341         7.5870    -1.8060     3.8790 hc         1 P2F       0.023450
     67 H342         7.5540    -3.1060     2.6790 hc         1 P2F       0.023450
     68 H351         9.9260    -1.3270     3.3510 hc         1 P2F       0.004867
     69 H352         9.7570    -3.0450     3.7390 hc         1 P2F       0.004867
     70 H353         9.9080    -2.5300     2.0530 hc         1 P2F       0.004867
     71 H371         5.1650    -0.2820    -0.5780 hc         1 P2F       0.023450
     72 H372         6.5060    -1.3770    -0.9420 hc         1 P2F       0.023450
     73 H381         4.5000    -1.6470    -2.4630 hc         1 P2F       0.004867
     74 H382         3.5850    -2.2020    -1.0540 hc         1 P2F       0.004867
     75 H383         4.9800    -3.1280    -1.6230 hc         1 P2F       0.004867
     76 H11          0.1670    -0.3360    -2.3090 h1         1 P2F       0.069700
     77 H141         2.0380     1.9840    -2.9020 hc         1 P2F       0.033700
     78 H142         0.5870     1.6010    -3.8400 hc         1 P2F       0.033700
     79 H10          2.0380    -1.7340    -3.1820 h1         1 P2F       0.006700
     80 H20          1.8720     2.8310    -0.6310 ha         1 P2F       0.101500
     81 H18         -1.6270     1.9140    -2.9010 ha         1 P2F       0.101500
     82 H21          0.4920     4.0600     1.0010 ha         1 P2F       0.099500
     83 H16         -1.9490     4.2120     0.6850 ha         1 P2F       0.098000
     84 H17         -3.0080     3.1410    -1.2670 ha         1 P2F       0.099500
     85 H2           3.6860    -0.6500    -4.3290 ho         1 P2F       0.409000
     86 H91C         1.0570     0.3290    -5.1860 h1         1 P2F       0.035200
     87 H92C         0.1070    -1.0550    -4.6270 h1         1 P2F       0.035200
     88 H4           1.8300    -2.4760    -5.4570 hn         1 P2F       0.260800
     89 H121        -0.3430    -2.9820    -6.2480 hc         1 P2F       0.015533
     90 H122        -0.9690    -1.3280    -6.2990 hc         1 P2F       0.015533
     91 H123        -0.8660    -2.2810    -7.7860 hc         1 P2F       0.015533
     92 H131         1.9140     0.3630    -7.5170 hc         1 P2F       0.015533
     93 H132         0.6770    -0.1480    -8.6730 hc         1 P2F       0.015533
     94 H133         0.2030     0.4430    -7.0750 hc         1 P2F       0.015533
     95 HA           3.2970    -2.9570    -6.7130 ha         1 P2F       0.118000
     96 HB           0.2940    -2.0800    -9.6200 ha         1 P2F       0.124000
     97 HC           4.4540    -4.4070    -8.3370 ha         1 P2F       0.100000
     98 H6           3.5380    -4.6940   -10.6070 ha         1 P2F       0.121000
     99 H81C         1.5610    -4.4580   -13.3510 h1         1 P2F      -0.002300
    100 H82C         3.0730    -4.0250   -12.5420 h1         1 P2F      -0.002300
    101 H83C         2.1320    -5.4110   -11.9750 h1         1 P2F      -0.002300
@<TRIPOS>BOND
     1     1     2 2   
     2     2     3 1   
     3     2    26 1   
     4     3     4 ar  
     5     3     5 ar  
     6     4    16 ar  
     7     4    51 1   
     8     5     6 ar  
     9     5    52 1   
    10     6     7 1   
    11     6    15 ar  
    12     7     8 1   
    13     7    12 1   
    14     8     9 1   
    15     8    54 1   
    16     8    55 1   
    17     9    10 1   
    18     9    56 1   
    19     9    57 1   
    20    10    11 1   
    21    10    58 1   
    22    10    59 1   
    23    11    12 1   
    24    11    60 1   
    25    11    61 1   
    26    12    13 2   
    27    12    14 2   
    28    15    16 ar  
    29    15    53 1   
    30    16    17 1   
    31    17    18 1   
    32    17    25 2   
    33    18    19 1   
    34    18    22 1   
    35    19    20 1   
    36    19    62 1   
    37    19    63 1   
    38    20    21 1   
    39    20    66 1   
    40    20    67 1   
    41    21    68 1   
    42    21    69 1   
    43    21    70 1   
    44    22    23 1   
    45    22    64 1   
    46    22    65 1   
    47    23    24 1   
    48    23    71 1   
    49    23    72 1   
    50    24    73 1   
    51    24    74 1   
    52    24    75 1   
    53    26    27 1   
    54    26    50 1   
    55    27    28 1   
    56    27    35 1   
    57    27    76 1   
    58    28    29 1   
    59    28    77 1   
    60    28    78 1   
    61    29    30 ar  
    62    29    34 ar  
    63    30    31 ar  
    64    30    80 1   
    65    31    32 ar  
    66    31    82 1   
    67    32    33 ar  
    68    32    83 1   
    69    33    34 ar  
    70    33    84 1   
    71    34    81 1   
    72    35    36 1   
    73    35    37 1   
    74    35    79 1   
    75    36    85 1   
    76    37    38 1   
    77    37    86 1   
    78    37    87 1   
    79    38    39 1   
    80    38    88 1   
    81    39    40 1   
    82    39    41 1   
    83    39    42 1   
    84    40    89 1   
    85    40    90 1   
    86    40    91 1   
    87    41    92 1   
    88    41    93 1   
    89    41    94 1   
    90    42    43 ar  
    91    42    47 ar  
    92    43    44 ar  
    93    43    95 1   
    94    44    45 ar  
    95    44    97 1   
    96    45    46 ar  
    97    45    98 1   
    98    46    47 ar  
    99    46    48 1   
   100    47    96 1   
   101    48    49 1   
   102    49    99 1   
   103    49   100 1   
   104    49   101 1   
@<TRIPOS>SUBSTRUCTURE
     1 P2F         1 TEMP              0 ****  ****    0 ROOT
