@<TRIPOS>MOLECULE
P2G
   37    40     1     0     0
SMALL
bcc


@<TRIPOS>ATOM
      1 O6         -0.1820    0.1480   -0.6500 o         1 P2G     -0.652500
      2 C6          1.0600    0.1270   -0.5630 c         1 P2G      0.648000
      3 N1          1.6190   -0.0310    0.7290 n         1 P2G     -0.502400
      4 C2          3.0130   -0.0220    0.9620 cc        1 P2G      0.621800
      5 N2          3.4280   -0.0830    2.3350 nh        1 P2G     -0.868800
      6 N3          3.9440    0.0850    0.0000 nd        1 P2G     -0.595100
      7 C4          3.4440    0.2050   -1.2850 cd        1 P2G      0.093800
      8 C5          2.0370    0.2380   -1.6250 cc        1 P2G      0.171800
      9 N7          1.8820    0.3650   -3.0040 nc        1 P2G     -0.627000
     10 C8          3.1430    0.3960   -3.4900 cd        1 P2G      0.399400
     11 N9          4.1340    0.3060   -2.4910 na        1 P2G     -0.177900
     12 C1'         5.5860    0.2550   -2.6440 c3        1 P2G      0.203800
     13 O4'         5.9360    0.8260   -3.9070 os        1 P2G     -0.445600
     14 C2'         6.1920   -1.1830   -2.5690 c3        1 P2G      0.095100
     15 O2'         7.2870   -1.2200   -1.6740 os        1 P2G     -0.356600
     16 C1          8.4930   -1.0750   -2.4090 c3        1 P2G      0.226700
     17 P           9.7480   -2.2220   -1.6040 p5        1 P2G      1.187700
     18 O3         10.9260   -2.0210   -2.5190 o         1 P2G     -0.925833
     19 O4          9.8760   -1.5750   -0.2510 o         1 P2G     -0.925833
     20 O2          9.0960   -3.5750   -1.6380 o         1 P2G     -0.925833
     21 O3'         8.2040   -1.6120   -3.6890 os        1 P2G     -0.363600
     22 C3'         6.8230   -1.4270   -3.9630 c3        1 P2G      0.094100
     23 C4'         6.5480   -0.1510   -4.7730 c3        1 P2G      0.060100
     24 C5'         5.6150   -0.4050   -5.9520 c3        1 P2G      0.112400
     25 O5'         5.1670    0.7900   -6.5690 oh        1 P2G     -0.627800
     26 HN1         0.9910   -0.0820    1.4980 hn        1 P2G      0.324500
     27 HN21        3.1460   -0.9480    2.7550 hn        1 P2G      0.399800
     28 HN22        4.4210    0.0420    2.4230 hn        1 P2G      0.399800
     29 H8          3.4220    0.4910   -4.5480 h5        1 P2G      0.072100
     30 H1'         6.0400    0.9220   -1.8510 h2        1 P2G      0.123700
     31 H2'         5.4600   -1.9510   -2.2320 h1        1 P2G      0.084700
     32 H1          8.7730    0.0010   -2.4890 h2        1 P2G      0.003700
     33 H3'         6.4670   -2.3460   -4.4860 h1        1 P2G      0.074700
     34 H4'         7.5070    0.3260   -5.1140 h1        1 P2G      0.101700
     35 H5'1        4.7150   -0.9920   -5.6220 h1        1 P2G      0.042200
     36 H5'2        6.1580   -0.9740   -6.7530 h1        1 P2G      0.042200
     37 H5'         5.1050    1.4650   -5.8810 ho        1 P2G      0.411000
@<TRIPOS>BOND
     1    1    2 2
     2    2    3 1
     3    2    8 1
     4    3    4 1
     5    3   26 1
     6    4    5 1
     7    4    6 2
     8    5   27 1
     9    5   28 1
    10    6    7 1
    11    7    8 2
    12    7   11 1
    13    8    9 1
    14    9   10 2
    15   10   11 1
    16   10   29 1
    17   11   12 1
    18   12   13 1
    19   12   14 1
    20   12   30 1
    21   13   23 1
    22   14   15 1
    23   14   22 1
    24   14   31 1
    25   15   16 1
    26   16   17 1
    27   16   21 1
    28   16   32 1
    29   17   18 1
    30   17   19 1
    31   17   20 1
    32   21   22 1
    33   22   23 1
    34   22   33 1
    35   23   24 1
    36   23   34 1
    37   24   25 1
    38   24   35 1
    39   24   36 1
    40   25   37 1
@<TRIPOS>SUBSTRUCTURE
     1 P2G         1 TEMP              0 ****  ****    0 ROOT
