@<TRIPOS>MOLECULE
P2H
   35    36     1     0     0
SMALL
bcc


@<TRIPOS>ATOM
      1 C7          0.7560   -0.3360   -0.2360 c3        1 P2H     -0.011000
      2 C8          1.7720    0.3750    0.5600 c2        1 P2H     -1.213000
      3 P9          1.6070    0.4990    2.1740 p5        1 P2H      2.087000
      4 O10         1.1640   -1.1680    2.4980 os        1 P2H     -0.706000
      5 O11         2.8410    0.6830    2.9790 o         1 P2H     -0.900000
      6 N12         0.1740   -1.5650    0.3680 n3        1 P2H     -0.160000
      7 O12         0.3560    1.1270    2.6850 o         1 P2H     -0.900000
      8 C13        -0.0020   -1.5140    1.8600 c3        1 P2H      0.214000
      9 O13         3.0840   -0.0570    0.2310 oh        1 P2H     -0.339000
     10 C14        -0.5250   -2.8250    2.3960 c2        1 P2H     -0.230000
     11 P14         1.9320    1.8220   -1.1440 p3        1 P2H      2.544000
     12 C15        -0.8850   -3.8560    1.6140 c2        1 P2H     -0.093000
     13 O15         2.0460    0.9240   -2.3350 o         1 P2H     -1.207000
     14 C16        -0.7630   -3.8060    0.1750 c2        1 P2H     -0.347000
     15 O16         0.6440    2.5670   -1.0770 o         1 P2H     -1.207000
     16 C17        -0.1520   -2.6230   -0.3460 c2        1 P2H      0.102000
     17 O17         3.1830    2.5140   -0.7180 o         1 P2H     -1.207000
     18 C18        -1.2060   -4.8550   -0.6600 ca        1 P2H      0.130000
     19 C19        -2.0280   -5.9080   -0.1660 ca        1 P2H     -0.225500
     20 C20        -2.4640   -6.9390   -0.9800 ca        1 P2H     -0.102500
     21 C21        -2.1190   -6.9850   -2.3320 ca        1 P2H     -0.280000
     22 C22        -1.3190   -5.9620   -2.8470 ca        1 P2H     -0.102500
     23 C23        -0.8710   -4.9290   -2.0430 ca        1 P2H     -0.225500
     24 H7          1.1960   -0.6330   -1.2390 h1        1 P2H      0.128500
     25 H7A        -0.1270    0.3540   -0.4180 h1        1 P2H      0.128500
     26 H13        -0.7760   -0.6880    2.0210 h2        1 P2H      0.116000
     27 HO13        3.6210    0.7480    0.3160 ho        1 P2H      0.214000
     28 H14        -0.5490   -2.8730    3.4910 ha        1 P2H      0.111000
     29 H15        -1.2520   -4.7880    2.0680 ha        1 P2H      0.076000
     30 H17         0.0290   -2.5460   -1.4390 h4        1 P2H      0.132000
     31 H19        -2.3380   -5.8970    0.8870 ha        1 P2H      0.117500
     32 H20        -3.0970   -7.7330   -0.5570 ha        1 P2H      0.080000
     33 H21        -2.4680   -7.8010   -2.9730 ha        1 P2H      0.081000
     34 H22        -1.0360   -5.9820   -3.9100 ha        1 P2H      0.080000
     35 H23        -0.2290   -4.1540   -2.4850 ha        1 P2H      0.117500
@<TRIPOS>BOND
     1    1    2 1   
     2    1    6 1   
     3    1   24 1   
     4    1   25 1   
     5    2    3 1   
     6    2    9 1   
     7    3    4 1   
     8    3    5 1   
     9    3    7 1   
    10    4    8 1   
    11    6    8 1   
    12    6   16 1   
    13    8   10 1   
    14    8   26 1   
    15    9   27 1   
    16   10   12 1   
    17   10   28 1   
    18   11   13 1   
    19   11   15 1   
    20   11   17 1   
    21   12   14 1   
    22   12   29 1   
    23   14   16 1   
    24   14   18 1   
    25   16   30 1   
    26   18   19 1   
    27   18   23 1   
    28   19   20 1   
    29   19   31 1   
    30   20   21 1   
    31   20   32 1   
    32   21   22 1   
    33   21   33 1   
    34   22   23 1   
    35   22   34 1   
    36   23   35 1   
@<TRIPOS>SUBSTRUCTURE
     1 P2H         1 TEMP              0 ****  ****    0 ROOT
