@<TRIPOS>MOLECULE
molecule
   35    36     1     0     0
SMALL
bcc


@<TRIPOS>ATOM
      1 C7           0.0000     0.0000     0.0000 c3         1 P2H       0.027300
      2 C8           1.5300     0.0000     0.0000 c3         1 P2H      -0.111600
      3 P9           2.1380     0.0000     1.7180 p5         1 P2H       1.031200
      4 O10          1.6020    -1.3150     2.4770 o          1 P2H      -0.841167
      5 O11          3.7480     0.0000     1.7180 o          1 P2H      -0.841167
      6 N12         -0.4870    -1.2590     0.5700 na         1 P2H       0.085900
      7 O12          1.6450     1.2080     2.4170 o          1 P2H      -0.841167
      8 C13         -0.8380    -1.2940     1.8410 ca         1 P2H      -0.030300
      9 O13          2.0070    -1.1660    -0.6750 oh         1 P2H      -0.652800
     10 C14         -1.3040    -2.4610     2.4200 ca         1 P2H      -0.154000
     11 P14          2.1370     1.4890    -0.8590 p5         1 P2H       1.031200
     12 C15         -1.4010    -3.6070     1.6500 ca         1 P2H      -0.107000
     13 O15          1.4980     1.5560    -2.3350 o          1 P2H      -0.841167
     14 C16         -1.0220    -3.5370     0.3060 cp         1 P2H      -0.203000
     15 O16          1.7060     2.8000    -0.0290 o          1 P2H      -0.841167
     16 C17         -0.5680    -2.3230    -0.2040 ca         1 P2H       0.043700
     17 O17          3.6120     1.4330    -0.9620 o          1 P2H      -0.841167
     18 C18         -1.1070    -4.7360    -0.5650 cp         1 P2H       0.062000
     19 C19         -1.5670    -5.9440    -0.0470 ca         1 P2H      -0.144000
     20 C20         -1.6430    -7.0570    -0.8610 ca         1 P2H      -0.140000
     21 C21         -1.2640    -6.9730    -2.1880 ca         1 P2H      -0.196000
     22 C22         -0.8070    -5.7750    -2.7080 ca         1 P2H      -0.140000
     23 C23         -0.7320    -4.6550    -1.9040 ca         1 P2H      -0.144000
     24 H7          -0.3610     0.8300     0.5950 h1         1 P2H       0.085700
     25 H7A         -0.3610     0.1000    -1.0160 h1         1 P2H       0.085700
     26 H13         -0.7610    -0.3950     2.4400 h4         1 P2H       0.210000
     27 HO13         2.9200    -1.0580    -0.8830 ho         1 P2H       0.429000
     28 H14         -1.5890    -2.4780     3.4650 ha         1 P2H       0.121000
     29 H15         -1.7610    -4.5350     2.0780 ha         1 P2H       0.099000
     30 H17         -0.2710    -2.2540    -1.2430 h4         1 P2H       0.187000
     31 H19         -1.7980    -6.0290     1.0080 ha         1 P2H       0.138000
     32 H20         -2.0010    -7.9970    -0.4590 ha         1 P2H       0.101500
     33 H21         -1.3250    -7.8480    -2.8230 ha         1 P2H       0.092000
     34 H22         -0.5080    -5.7160    -3.7470 ha         1 P2H       0.101500
     35 H23         -0.4730    -3.8930    -2.6290 ha         1 P2H       0.138000
@<TRIPOS>BOND
     1     1     2 1
     2     1     6 1
     3     1    24 1
     4     1    25 1
     5     2     3 1
     6     2     9 1
     7     2    11 1
     8     3     4 1
     9     3     5 1
    10     3     7 1
    11     6     8 1
    12     6    16 2
    13     8    10 ar
    14     8    26 1
    15     9    27 1
    16    10    12 ar
    17    10    28 1
    18    11    13 1
    19    11    15 1
    20    11    17 1
    21    12    14 ar
    22    12    29 1
    23    14    16 ar
    24    14    18 1
    25    16    30 1
    26    18    19 ar
    27    18    23 ar
    28    19    20 ar
    29    19    31 1
    30    20    21 ar
    31    20    32 1
    32    21    22 ar
    33    21    33 1
    34    22    23 ar
    35    22    34 1
    36    23    35 1
@<TRIPOS>SUBSTRUCTURE
     1 P2H         1 TEMP              0 ****  ****    0 ROOT
