@<TRIPOS>MOLECULE
P2I
   49    49     1     0     0
SMALL
bcc


@<TRIPOS>ATOM
      1 C1         -0.2700   -0.2190   -0.3800 c3        1 P2I      0.149100
      2 C2          1.2480    0.0100   -0.2760 c3        1 P2I      0.106100
      3 C3          1.5850    0.5210    1.1320 c3        1 P2I      0.107100
      4 C4          1.1670   -0.4990    2.2050 c3        1 P2I      0.157100
      5 C5         -0.3380   -0.7860    2.0920 c3        1 P2I      0.107100
      6 C6         -0.6960   -1.2580    0.6690 c3        1 P2I      0.106100
      7 O1         -0.9390    0.9830   -0.1530 os        1 P2I     -0.585200
      8 P1         -1.8870    1.4990   -1.4200 p5        1 P2I      1.424800
      9 O2         -0.8830    1.8930   -2.4280 o         1 P2I     -0.818000
     10 O3         -2.9450    0.4820   -1.5190 o         1 P2I     -0.818000
     11 O4         -2.4890    2.8630   -0.7380 os        1 P2I     -0.556200
     12 C7         -1.5040    3.8220   -0.4790 c3        1 P2I      0.161400
     13 C8         -2.1910    5.0770    0.0750 c3        1 P2I      0.134100
     14 O5         -1.1300    5.9760    0.4540 os        1 P2I     -0.443900
     15 C9         -1.0810    6.4440    1.7340 c         1 P2I      0.639100
     16 O6         -1.9690    6.1530    2.5370 o         1 P2I     -0.544000
     17 C10         0.1230    7.2920    1.9760 c3        1 P2I     -0.151100
     18 C11        -3.0070    5.7600   -1.0200 c3        1 P2I      0.126400
     19 O7         -3.9710    6.5880   -0.3450 os        1 P2I     -0.434900
     20 C12        -4.6340    7.5150   -1.0900 c         1 P2I      0.632100
     21 O8         -4.3520    7.6460   -2.2840 o         1 P2I     -0.557000
     22 C13        -5.6520    8.2670   -0.3010 c3        1 P2I     -0.151100
     23 O9          1.7300    0.9340   -1.2300 oh        1 P2I     -0.634300
     24 O10         2.9860    0.7190    1.2820 oh        1 P2I     -0.618800
     25 O11         1.4040    0.0330    3.4990 oh        1 P2I     -0.592800
     26 O12        -0.6450   -1.8130    3.0250 oh        1 P2I     -0.618800
     27 O13        -2.0820   -1.5350    0.6200 oh        1 P2I     -0.634300
     28 H1         -0.5170   -0.6110   -1.4110 h1        1 P2I      0.057700
     29 H2          1.7990   -0.9510   -0.4760 h1        1 P2I      0.054700
     30 H3          1.0560    1.5000    1.3100 h1        1 P2I      0.072700
     31 H4          1.7530   -1.4520    2.0840 h1        1 P2I      0.042700
     32 H5         -0.9240    0.1410    2.3430 h1        1 P2I      0.072700
     33 H6         -0.1820   -2.2390    0.4630 h1        1 P2I      0.054700
     34 H7         -0.9480    4.0510   -1.4290 h1        1 P2I      0.052200
     35 H8         -0.7860    3.4130    0.2820 h1        1 P2I      0.052200
     36 H9         -2.8420    4.8210    0.9530 h1        1 P2I      0.109700
     37 H10         0.8940    6.6730    2.4990 hc        1 P2I      0.069367
     38 H11        -0.1600    8.1540    2.6260 hc        1 P2I      0.069367
     39 H12         0.5470    7.6660    1.0140 hc        1 P2I      0.069367
     40 H13        -2.3650    6.3900   -1.6870 h1        1 P2I      0.077700
     41 H14        -3.5590    4.9880   -1.6170 h1        1 P2I      0.077700
     42 H15        -6.6620    7.8490   -0.5330 hc        1 P2I      0.070033
     43 H16        -5.6220    9.3430   -0.5950 hc        1 P2I      0.070033
     44 H17        -5.4580    8.1660    0.7940 hc        1 P2I      0.070033
     45 H18         0.9700    1.4530   -1.5650 ho        1 P2I      0.461500
     46 H19         3.2840    1.1550    0.4730 ho        1 P2I      0.417500
     47 H20         2.3200    0.3380    3.4980 ho        1 P2I      0.405000
     48 H21        -1.5580   -2.0730    2.8360 ho        1 P2I      0.417500
     49 H22        -2.5230   -0.8070    0.1390 ho        1 P2I      0.461500
@<TRIPOS>BOND
     1    1    2 1   
     2    1    6 1   
     3    1    7 1   
     4    1   28 1   
     5    2    3 1   
     6    2   23 1   
     7    2   29 1   
     8    3    4 1   
     9    3   24 1   
    10    3   30 1   
    11    4    5 1   
    12    4   25 1   
    13    4   31 1   
    14    5    6 1   
    15    5   26 1   
    16    5   32 1   
    17    6   27 1   
    18    6   33 1   
    19    7    8 1   
    20    8    9 1   
    21    8   10 1   
    22    8   11 1   
    23   11   12 1   
    24   12   13 1   
    25   12   34 1   
    26   12   35 1   
    27   13   14 1   
    28   13   18 1   
    29   13   36 1   
    30   14   15 1   
    31   15   16 2   
    32   15   17 1   
    33   17   37 1   
    34   17   38 1   
    35   17   39 1   
    36   18   19 1   
    37   18   40 1   
    38   18   41 1   
    39   19   20 1   
    40   20   21 2   
    41   20   22 1   
    42   22   42 1   
    43   22   43 1   
    44   22   44 1   
    45   23   45 1   
    46   24   46 1   
    47   25   47 1   
    48   26   48 1   
    49   27   49 1   
@<TRIPOS>SUBSTRUCTURE
     1 P2I         1 TEMP              0 ****  ****    0 ROOT
