@<TRIPOS>MOLECULE
molecule
   49    49     1     0     0
SMALL
bcc


@<TRIPOS>ATOM
      1 C1           0.0000     0.0000     0.0000 c3         1 P2I       0.161100
      2 C2           1.5300     0.0000     0.0000 c3         1 P2I       0.132100
      3 C3           2.0400     0.0000     1.4420 c3         1 P2I       0.123600
      4 C4           1.5300    -1.2480     2.1640 c3         1 P2I       0.129100
      5 C5          -0.0000    -1.2480     2.1650 c3         1 P2I       0.123600
      6 C6          -0.5100    -1.2490     0.7220 c3         1 P2I       0.132100
      7 O1          -0.4760     1.1670     0.6730 os         1 P2I      -0.518200
      8 P1          -1.3590     1.9920    -0.3920 p5         1 P2I       1.281800
      9 O2          -0.5140     2.2680    -1.6560 o          1 P2I      -0.815500
     10 O3          -2.6060     1.1660    -0.7770 o          1 P2I      -0.815500
     11 O4          -1.8210     3.3890     0.2610 os         1 P2I      -0.527200
     12 C7          -2.4940     4.1220    -0.7650 c3         1 P2I       0.144400
     13 C8          -2.9620     5.4670    -0.2070 c3         1 P2I       0.154100
     14 O5          -1.8060     6.2730     0.1450 os         1 P2I      -0.435900
     15 C9          -1.2860     6.1960     1.3800 c          1 P2I       0.641100
     16 O6          -1.7790     5.4570     2.1990 o          1 P2I      -0.530000
     17 C10         -0.0870     7.0320     1.7460 c3         1 P2I      -0.137100
     18 C11         -3.7890     6.1990    -1.2660 c3         1 P2I       0.152400
     19 O7          -4.3310     7.4200    -0.6990 os         1 P2I      -0.436900
     20 C12         -5.0950     8.2270    -1.4510 c          1 P2I       0.636100
     21 O8          -5.3320     7.9390    -2.5990 o          1 P2I      -0.560000
     22 C13         -5.6580     9.4960    -0.8620 c3         1 P2I      -0.139100
     23 O9           2.0060     1.1660    -0.6740 oh         1 P2I      -0.553800
     24 O10          3.4690    -0.0000     1.4410 oh         1 P2I      -0.621800
     25 O11          2.0060    -1.2480     3.5110 oh         1 P2I      -0.606800
     26 O12         -0.4770    -2.4150     2.8390 oh         1 P2I      -0.621800
     27 O13         -1.9400    -1.2480     0.7220 oh         1 P2I      -0.553800
     28 H1          -0.3590    -0.0040    -1.0220 h1         1 P2I       0.099700
     29 H2           1.8880    -0.8870    -0.5070 h1         1 P2I       0.024700
     30 H3           1.6750     0.8830     1.9510 h1         1 P2I       0.083700
     31 H4           1.8880    -2.1320     1.6500 h1         1 P2I       0.037700
     32 H5          -0.3590    -0.3610     2.6720 h1         1 P2I       0.083700
     33 H6          -0.1450    -2.1320     0.2120 h1         1 P2I       0.024700
     34 H7          -1.8150     4.2900    -1.5920 h1         1 P2I       0.067700
     35 H8          -3.3510     3.5560    -1.1100 h1         1 P2I       0.067700
     36 H9          -3.5690     5.3020     0.6750 h1         1 P2I       0.080700
     37 H10          0.4170     6.5890     2.5960 hc         1 P2I       0.059700
     38 H11          0.5950     7.0740     0.9040 hc         1 P2I       0.059700
     39 H12         -0.4100     8.0350     1.9990 hc         1 P2I       0.059700
     40 H13         -3.1580     6.4430    -2.1120 h1         1 P2I       0.063700
     41 H14         -4.6010     5.5610    -1.5940 h1         1 P2I       0.063700
     42 H15         -4.9490    10.3040    -0.9990 hc         1 P2I       0.063367
     43 H16         -5.8410     9.3530     0.1970 hc         1 P2I       0.063367
     44 H17         -6.5880     9.7430    -1.3590 hc         1 P2I       0.063367
     45 H18          2.5610     0.9090    -1.3920 ho         1 P2I       0.393000
     46 H19          3.7830     0.7770     1.8730 ho         1 P2I       0.405500
     47 H20          2.5490    -2.0060     3.6530 ho         1 P2I       0.398000
     48 H21         -0.9840    -2.1580     3.5910 ho         1 P2I       0.405500
     49 H22         -2.2540    -2.0470     0.3310 ho         1 P2I       0.393000
@<TRIPOS>BOND
     1     1     2 1
     2     1     6 1
     3     1     7 1
     4     1    28 1
     5     2     3 1
     6     2    23 1
     7     2    29 1
     8     3     4 1
     9     3    24 1
    10     3    30 1
    11     4     5 1
    12     4    25 1
    13     4    31 1
    14     5     6 1
    15     5    26 1
    16     5    32 1
    17     6    27 1
    18     6    33 1
    19     7     8 1
    20     8     9 1
    21     8    10 1
    22     8    11 1
    23    11    12 1
    24    12    13 1
    25    12    34 1
    26    12    35 1
    27    13    14 1
    28    13    18 1
    29    13    36 1
    30    14    15 1
    31    15    16 2
    32    15    17 1
    33    17    37 1
    34    17    38 1
    35    17    39 1
    36    18    19 1
    37    18    40 1
    38    18    41 1
    39    19    20 1
    40    20    21 2
    41    20    22 1
    42    22    42 1
    43    22    43 1
    44    22    44 1
    45    23    45 1
    46    24    46 1
    47    25    47 1
    48    26    48 1
    49    27    49 1
@<TRIPOS>SUBSTRUCTURE
     1 P2I         1 TEMP              0 ****  ****    0 ROOT
