@<TRIPOS>MOLECULE
molecule
   45    44     1     0     0
SMALL
bcc


@<TRIPOS>ATOM
      1 O7           0.0000     0.0000     0.0000 oh         1 P2K      -0.600800
      2 C8           1.4300     0.0000     0.0000 c3         1 P2K       0.143400
      3 C9           1.9400     0.0000     1.4420 c3         1 P2K       0.141900
      4 O10          1.5600    -1.2200     2.0820 os         1 P2K      -0.408600
      5 C11          1.9910    -1.3210     3.4410 c3         1 P2K       0.141400
      6 C12          1.5330    -2.6610     4.0220 c3         1 P2K       0.142400
      7 O13          2.1910    -3.7270     3.3370 os         1 P2K      -0.410600
      8 C14          1.8320    -5.0290     3.8050 c3         1 P2K       0.141900
      9 C15          2.5930    -6.0870     3.0050 c3         1 P2K       0.141400
     10 O16          3.9930    -5.9650     3.2640 os         1 P2K      -0.410600
     11 C17          4.7990    -6.9130     2.5600 c3         1 P2K       0.141400
     12 C18          6.2720    -6.6920     2.9110 c3         1 P2K       0.141900
     13 O19          6.4790    -6.9730     4.2980 os         1 P2K      -0.410600
     14 C20          7.8280    -6.7950     4.7320 c3         1 P2K       0.142400
     15 C21          7.9320    -7.1230     6.2220 c3         1 P2K       0.141400
     16 O22          7.6490    -8.5090     6.4260 os         1 P2K      -0.408600
     17 C23          7.7180    -8.9210     7.7920 c3         1 P2K       0.141900
     18 C24          7.3990   -10.4150     7.8910 c3         1 P2K       0.143400
     19 O25          8.4120   -11.1640     7.2170 oh         1 P2K      -0.600800
     20 HO7         -0.3140     0.0630    -0.8870 ho         1 P2K       0.399000
     21 H81          1.7910    -0.8840    -0.5110 h1         1 P2K       0.028700
     22 H82          1.7910     0.8840    -0.5110 h1         1 P2K       0.028700
     23 H91          1.5100     0.8380     1.9770 h1         1 P2K       0.030200
     24 H92          3.0200     0.0870     1.4430 h1         1 P2K       0.030200
     25 H111         1.5610    -0.5110     4.0180 h1         1 P2K       0.031700
     26 H112         3.0720    -1.2610     3.4830 h1         1 P2K       0.031700
     27 H121         0.4610    -2.7600     3.8990 h1         1 P2K       0.031700
     28 H122         1.7800    -2.7010     5.0760 h1         1 P2K       0.031700
     29 H141         2.0860    -5.1180     4.8540 h1         1 P2K       0.032200
     30 H142         0.7670    -5.1770     3.6770 h1         1 P2K       0.032200
     31 H151         2.4080    -5.9430     1.9470 h1         1 P2K       0.031700
     32 H152         2.2560    -7.0740     3.2990 h1         1 P2K       0.031700
     33 H171         4.5070    -7.9170     2.8450 h1         1 P2K       0.031700
     34 H172         4.6590    -6.7850     1.4940 h1         1 P2K       0.031700
     35 H181         6.8890    -7.3510     2.3130 h1         1 P2K       0.032200
     36 H182         6.5410    -5.6620     2.7070 h1         1 P2K       0.032200
     37 H201         8.4780    -7.4560     4.1700 h1         1 P2K       0.031700
     38 H202         8.1290    -5.7680     4.5660 h1         1 P2K       0.031700
     39 H211         8.9340    -6.9040     6.5710 h1         1 P2K       0.031700
     40 H212         7.2180    -6.5240     6.7740 h1         1 P2K       0.031700
     41 H231         8.7160    -8.7390     8.1740 h1         1 P2K       0.030200
     42 H232         7.0000    -8.3590     8.3760 h1         1 P2K       0.030200
     43 H241         7.3660   -10.7090     8.9330 h1         1 P2K       0.028700
     44 H242         6.4380   -10.6100     7.4300 h1         1 P2K       0.028700
     45 HO25         8.2490   -12.0860     7.3310 ho         1 P2K       0.399000
@<TRIPOS>BOND
     1     1     2 1
     2     1    20 1
     3     2     3 1
     4     2    21 1
     5     2    22 1
     6     3     4 1
     7     3    23 1
     8     3    24 1
     9     4     5 1
    10     5     6 1
    11     5    25 1
    12     5    26 1
    13     6     7 1
    14     6    27 1
    15     6    28 1
    16     7     8 1
    17     8     9 1
    18     8    29 1
    19     8    30 1
    20     9    10 1
    21     9    31 1
    22     9    32 1
    23    10    11 1
    24    11    12 1
    25    11    33 1
    26    11    34 1
    27    12    13 1
    28    12    35 1
    29    12    36 1
    30    13    14 1
    31    14    15 1
    32    14    37 1
    33    14    38 1
    34    15    16 1
    35    15    39 1
    36    15    40 1
    37    16    17 1
    38    17    18 1
    39    17    41 1
    40    17    42 1
    41    18    19 1
    42    18    43 1
    43    18    44 1
    44    19    45 1
@<TRIPOS>SUBSTRUCTURE
     1 P2K         1 TEMP              0 ****  ****    0 ROOT
