@<TRIPOS>MOLECULE
P2L
   34    35     1     0     0
SMALL
bcc


@<TRIPOS>ATOM
      1 C15          0.0000     0.0000     0.0000 c3         1 P2L       0.119500
      2 C17          1.5310     0.0000     0.0000 c3         1 P2L       0.131800
      3 C22         -0.6210    -1.1630    -2.0860 cc         1 P2L      -0.035600
      4 C01          3.4840    -0.1390     1.4240 c3         1 P2L       0.188100
      5 N05          2.0210     0.0000     1.3840 n3         1 P2L      -0.540600
      6 C06          1.5880     1.2050     2.1020 c3         1 P2L       0.151800
      7 C09          0.0590     1.2410     2.1650 c3         1 P2L      -0.018400
      8 C12         -0.5050     1.2410     0.7410 c3         1 P2L      -0.034400
      9 N20         -0.4890     0.0220    -1.3810 nu         1 P2L      -0.374000
     10 C23         -0.2870    -2.3940    -1.4810 cc         1 P2L       0.369500
     11 N25         -0.4110    -3.5090    -2.1440 nd         1 P2L      -0.483300
     12 N26         -0.8760    -3.5170    -3.4630 n          1 P2L       0.142200
     13 C27         -1.0050    -4.7880    -4.1800 c3         1 P2L       0.096300
     14 C31         -1.2070    -2.3650    -4.0800 c          1 P2L       0.616700
     15 O32         -1.6170    -2.3800    -5.2300 o          1 P2L      -0.688500
     16 C33         -1.0880    -1.1510    -3.3880 cd         1 P2L      -0.275800
     17 Cl1         -1.5080     0.3470    -4.1600 cl         1 P2L       0.028600
     18 H1          -0.3600    -0.8900     0.5020 h1         1 P2L       0.053700
     19 H2           1.8900    -0.8860    -0.5090 h1         1 P2L       0.018700
     20 H3           1.8900     0.8860    -0.5090 h1         1 P2L       0.018700
     21 H4           3.9400     0.6910     0.8990 h1         1 P2L       0.002700
     22 H5           3.8180    -0.1420     2.4550 h1         1 P2L       0.002700
     23 H6           3.7710    -1.0690     0.9490 h1         1 P2L       0.002700
     24 H8           1.9890     1.1880     3.1080 h1         1 P2L       0.011700
     25 H9           1.9470     2.0830     1.5790 h1         1 P2L       0.011700
     26 H10         -0.2590     2.1400     2.6790 hc         1 P2L       0.024200
     27 H11         -0.3000     0.3670     2.6960 hc         1 P2L       0.024200
     28 H12         -0.1740     2.1320     0.2210 hc         1 P2L       0.021200
     29 H13         -1.5880     1.2210     0.7820 hc         1 P2L       0.021200
     30 H14          0.0750    -2.4110    -0.4600 h4         1 P2L       0.021800
     31 H15         -2.0400    -4.9400    -4.4620 h1         1 P2L       0.021700
     32 H16         -0.3890    -4.7640    -5.0710 h1         1 P2L       0.021700
     33 H17         -0.6820    -5.5990    -3.5390 h1         1 P2L       0.021700
     34 H7          -0.7650     0.8870    -1.8000 hn         1 P2L       0.307800
@<TRIPOS>BOND
     1     1     2 1   
     2     1     8 1   
     3     1     9 1   
     4     1    18 1   
     5     2     5 1   
     6     2    19 1   
     7     2    20 1   
     8     3     9 1   
     9     3    10 1   
    10     3    16 2   
    11     4     5 1   
    12     4    21 1   
    13     4    22 1   
    14     4    23 1   
    15     5     6 1   
    16     6     7 1   
    17     6    24 1   
    18     6    25 1   
    19     7     8 1   
    20     7    26 1   
    21     7    27 1   
    22     8    28 1   
    23     8    29 1   
    24     9    34 1   
    25    10    11 2   
    26    10    30 1   
    27    11    12 1   
    28    12    13 1   
    29    12    14 1   
    30    13    31 1   
    31    13    32 1   
    32    13    33 1   
    33    14    15 2   
    34    14    16 1   
    35    16    17 1   
@<TRIPOS>SUBSTRUCTURE
     1 P2L         1 TEMP              0 ****  ****    0 ROOT
