@<TRIPOS>MOLECULE
molecule
   34    35     1     0     0
SMALL
bcc


@<TRIPOS>ATOM
      1 C15          0.0000     0.0000     0.0000 c3         1 P2L       0.230500
      2 C17          1.5310     0.0000     0.0000 c3         1 P2L       0.142800
      3 C22         -0.6210    -1.1630    -2.0860 cc         1 P2L       0.114400
      4 C01          3.4840    -0.1390     1.4240 c3         1 P2L       0.154100
      5 N05          2.0210     0.0000     1.3840 n3         1 P2L      -0.733600
      6 C06          1.5880     1.2050     2.1020 c3         1 P2L       0.159800
      7 C09          0.0590     1.2410     2.1650 c3         1 P2L      -0.076400
      8 C12         -0.5050     1.2410     0.7410 c3         1 P2L      -0.092400
      9 N20         -0.4890     0.0220    -1.3810 nu         1 P2L      -0.791000
     10 C23         -0.2870    -2.3940    -1.4810 cc         1 P2L       0.349500
     11 N25         -0.4110    -3.5090    -2.1440 nd         1 P2L      -0.408300
     12 N26         -0.8760    -3.5170    -3.4630 n          1 P2L      -0.211800
     13 C27         -1.0050    -4.7880    -4.1800 c3         1 P2L       0.121300
     14 C31         -1.2070    -2.3650    -4.0800 c          1 P2L       0.691700
     15 O32         -1.6170    -2.3800    -5.2300 o          1 P2L      -0.635500
     16 C33         -1.0880    -1.1510    -3.3880 cd         1 P2L      -0.189800
     17 Cl1         -1.5080     0.3470    -4.1600 cl         1 P2L      -0.075400
     18 H1          -0.3600    -0.8900     0.5020 h1         1 P2L       0.071700
     19 H2           1.8900    -0.8860    -0.5090 h1         1 P2L       0.043700
     20 H3           1.8900     0.8860    -0.5090 h1         1 P2L       0.043700
     21 H4           3.9400     0.6910     0.8990 h1         1 P2L       0.035367
     22 H5           3.8180    -0.1420     2.4550 h1         1 P2L       0.035367
     23 H6           3.7710    -1.0690     0.9490 h1         1 P2L       0.035367
     24 H8           1.9890     1.1880     3.1080 h1         1 P2L       0.038200
     25 H9           1.9470     2.0830     1.5790 h1         1 P2L       0.038200
     26 H10         -0.2590     2.1400     2.6790 hc         1 P2L       0.054700
     27 H11         -0.3000     0.3670     2.6960 hc         1 P2L       0.054700
     28 H12         -0.1740     2.1320     0.2210 hc         1 P2L       0.051200
     29 H13         -1.5880     1.2210     0.7820 hc         1 P2L       0.051200
     30 H14          0.0750    -2.4110    -0.4600 h4         1 P2L       0.065800
     31 H15         -2.0400    -4.9400    -4.4620 h1         1 P2L       0.057367
     32 H16         -0.3890    -4.7640    -5.0710 h1         1 P2L       0.057367
     33 H17         -0.6820    -5.5990    -3.5390 h1         1 P2L       0.057367
     34 H7          -0.7650     0.8870    -1.8000 hn         1 P2L       0.458800
@<TRIPOS>BOND
     1    15    14 2
     2    17    16 1
     3    14    16 1
     4    14    12 1
     5    16     3 2
     6    13    12 1
     7    12    11 1
     8     3     9 1
     9     3    10 1
    10     9     1 1
    11    11    10 2
    12     8     1 1
    13     8     7 1
    14     1     2 1
    15     7     6 1
    16     2     5 1
    17     6     5 1
    18     5     4 1
    19     1    18 1
    20     2    19 1
    21     2    20 1
    22     4    21 1
    23     4    22 1
    24     4    23 1
    25     6    24 1
    26     6    25 1
    27     7    26 1
    28     7    27 1
    29     8    28 1
    30     8    29 1
    31    10    30 1
    32    13    31 1
    33    13    32 1
    34    13    33 1
    35     9    34 1
@<TRIPOS>SUBSTRUCTURE
     1 P2L         1 TEMP              0 ****  ****    0 ROOT
