@<TRIPOS>MOLECULE
P2M
   35    37     1     0     0
SMALL
bcc


@<TRIPOS>ATOM
      1 S            0.0000     0.0000     0.0000 sy         1 P2M       1.045200
      2 C1          -1.3680    -3.9710    -1.7680 ca         1 P2M      -0.028000
      3 N1           1.6560     0.0000     0.0000 n7         1 P2M      -0.580100
      4 O1          -0.4020     0.0000     1.3640 o          1 P2M      -0.585300
      5 C2          -0.6510    -3.9730    -0.5600 ca         1 P2M      -0.067000
      6 N2           4.1270     1.6410    -1.0720 nb         1 P2M      -0.553000
      7 O2          -0.4020     0.9980    -0.9280 o          1 P2M      -0.585300
      8 C3          -0.2220    -2.7420    -0.0040 ca         1 P2M       0.047000
      9 C4          -0.5230    -1.5430    -0.6720 ca         1 P2M      -0.150500
     10 C5          -1.2190    -1.5790    -1.8410 ca         1 P2M       0.029000
     11 C6          -1.6410    -2.7900    -2.3870 ca         1 P2M      -0.143000
     12 C7           0.4940    -2.7440     1.2050 ca         1 P2M      -0.122000
     13 C8           0.7670    -3.9240     1.8240 ca         1 P2M      -0.074000
     14 C9           0.3470    -5.1360     1.2770 ca         1 P2M      -0.107000
     15 C10         -0.3510    -5.1730     0.1080 ca         1 P2M      -0.078000
     16 C11          2.3880    -0.0640    -1.2680 c3         1 P2M       0.184500
     17 C12          3.8160     0.3600    -1.0440 ca         1 P2M       0.345600
     18 C13          5.3640     2.0590    -0.8820 ca         1 P2M       0.402200
     19 C14          6.3850     1.1580    -0.6460 ca         1 P2M      -0.215300
     20 C15          6.0970    -0.1980    -0.6100 ca         1 P2M      -0.071000
     21 C16          4.7860    -0.5980    -0.8130 ca         1 P2M      -0.205300
     22 HN1          2.1560     0.0930     0.8620 hn         1 P2M       0.351800
     23 H5          -1.4500    -0.6530    -2.3540 ha         1 P2M       0.128000
     24 H6          -2.1940    -2.7910    -3.3180 ha         1 P2M       0.109000
     25 H7           0.8270    -1.8100     1.6420 ha         1 P2M       0.134000
     26 H8           1.3200    -3.9230     2.7550 ha         1 P2M       0.103000
     27 H9           0.5770    -6.0610     1.7910 ha         1 P2M       0.103000
     28 H10         -0.6710    -6.1210    -0.3050 ha         1 P2M       0.106000
     29 H11          2.3670    -1.0790    -1.6460 h1         1 P2M       0.024200
     30 H11A         1.9230     0.5990    -1.9870 h1         1 P2M       0.024200
     31 H13          5.5810     3.1200    -0.9120 h4         1 P2M      -0.017900
     32 H14          7.3990     1.5080    -0.4910 ha         1 P2M       0.113000
     33 H15          6.8780    -0.9260    -0.4270 ha         1 P2M       0.109000
     34 H16          4.5240    -1.6490    -0.7920 ha         1 P2M       0.116000
     35 H1          -1.7030    -4.9040    -2.2050 ha         1 P2M       0.105000
@<TRIPOS>BOND
     1     1     3 1   
     2     1     4 2   
     3     1     7 2   
     4     1     9 1   
     5     2     5 ar  
     6     2    11 ar  
     7     2    35 1   
     8     3    16 1   
     9     3    22 1   
    10     5     8 ar  
    11     5    15 ar  
    12     6    17 ar  
    13     6    18 ar  
    14     8     9 ar  
    15     8    12 ar  
    16     9    10 ar  
    17    10    11 ar  
    18    10    23 1   
    19    11    24 1   
    20    12    13 ar  
    21    12    25 1   
    22    13    14 ar  
    23    13    26 1   
    24    14    15 ar  
    25    14    27 1   
    26    15    28 1   
    27    16    17 1   
    28    16    29 1   
    29    16    30 1   
    30    17    21 ar  
    31    18    19 ar  
    32    18    31 1   
    33    19    20 ar  
    34    19    32 1   
    35    20    21 ar  
    36    20    33 1   
    37    21    34 1   
@<TRIPOS>SUBSTRUCTURE
     1 P2M         1 TEMP              0 ****  ****    0 ROOT
