@<TRIPOS>MOLECULE
P2N
   42    43     1     0     0
SMALL
bcc


@<TRIPOS>ATOM
      1 C1         -0.0490   -0.6940   -0.0960 c         1 P2N      0.671700
      2 C2          1.4030   -0.4240   -0.0860 ca        1 P2N     -0.172600
      3 C3          2.1280   -0.4780   -1.2930 ca        1 P2N      0.208100
      4 C4          3.5040   -0.2270   -1.3190 ca        1 P2N     -0.250000
      5 C5          4.1540    0.0940   -0.1210 ca        1 P2N      0.199100
      6 C6          3.4370    0.1620    1.0920 ca        1 P2N     -0.095600
      7 C7          2.0630   -0.1190    1.1160 ca        1 P2N      0.054700
      8 C8          1.2920   -0.0700    2.3910 c3        1 P2N     -0.155100
      9 C9          1.4260   -1.3000    3.2570 c         1 P2N      0.576100
     10 C10         0.3150   -1.4780    4.2620 c3        1 P2N     -0.179400
     11 C11        -0.9160   -2.0840    3.6110 c3        1 P2N     -0.084400
     12 C12        -2.0910   -1.1240    3.5720 c3        1 P2N     -0.070400
     13 C13        -3.0670   -1.5250    2.4810 c3        1 P2N     -0.066200
     14 C14        -4.0830   -0.4850    2.1920 c2        1 P2N     -0.151200
     15 C15        -3.8930    0.6190    1.4620 c2        1 P2N     -0.180200
     16 C16        -2.6050    1.0720    0.8870 c3        1 P2N     -0.069200
     17 C17        -2.2130    0.3230   -0.3800 c3        1 P2N      0.134400
     18 O1         -0.7840    0.3820   -0.5120 os        1 P2N     -0.429900
     19 O2         -0.6310   -1.7330    0.2200 o         1 P2N     -0.534000
     20 O3          1.4250   -0.7910   -2.4280 oh        1 P2N     -0.481100
     21 O4          5.4970    0.3390   -0.2290 oh        1 P2N     -0.485100
     22 CL1         4.2630    0.5890    2.5200 cl        1 P2N     -0.080400
     23 O5          2.3660   -2.0920    3.1790 o         1 P2N     -0.510100
     24 H4          4.0790   -0.2770   -2.2540 ha        1 P2N      0.164000
     25 H8C1        0.1970    0.0820    2.1710 hc        1 P2N      0.086700
     26 H8C2        1.6290    0.8110    3.0060 hc        1 P2N      0.086700
     27 H101        0.6820   -2.1530    5.0800 hc        1 P2N      0.065200
     28 H102        0.0770   -0.4850    4.7260 hc        1 P2N      0.065200
     29 H111       -0.6670   -2.4140    2.5640 hc        1 P2N      0.062200
     30 H112       -1.2160   -3.0060    4.1760 hc        1 P2N      0.062200
     31 H121       -2.6100   -1.1150    4.5650 hc        1 P2N      0.038200
     32 H122       -1.7270   -0.0800    3.3860 hc        1 P2N      0.038200
     33 H131       -3.5810   -2.4770    2.7850 hc        1 P2N      0.061200
     34 H132       -2.4920   -1.7510    1.5380 hc        1 P2N      0.061200
     35 H14        -5.0860   -0.6890    2.6080 ha        1 P2N      0.119000
     36 H15        -4.7430    1.2980    1.2750 ha        1 P2N      0.120000
     37 H161       -1.7830    0.9420    1.6440 hc        1 P2N      0.052200
     38 H162       -2.6600    2.1690    0.6580 hc        1 P2N      0.052200
     39 H171       -2.5860    0.8480   -1.3000 h1        1 P2N      0.072700
     40 H172       -2.5750   -0.7370   -0.3710 h1        1 P2N      0.072700
     41 H3          2.0440   -0.8060   -3.1740 ho        1 P2N      0.432000
     42 HA          5.8580    0.4950    0.6600 ho        1 P2N      0.438000
@<TRIPOS>BOND
     1    1    2 1
     2    1   18 1
     3    1   19 2
     4    2    3 ar
     5    2    7 ar
     6    3    4 ar
     7    3   20 1
     8    4    5 ar
     9    4   24 1
    10    5    6 ar
    11    5   21 1
    12    6    7 ar
    13    6   22 1
    14    7    8 1
    15    8    9 1
    16    8   25 1
    17    8   26 1
    18    9   10 1
    19    9   23 2
    20   10   11 1
    21   10   27 1
    22   10   28 1
    23   11   12 1
    24   11   29 1
    25   11   30 1
    26   12   13 1
    27   12   31 1
    28   12   32 1
    29   13   14 1
    30   13   33 1
    31   13   34 1
    32   14   15 2
    33   14   35 1
    34   15   16 1
    35   15   36 1
    36   16   17 1
    37   16   37 1
    38   16   38 1
    39   17   18 1
    40   17   39 1
    41   17   40 1
    42   20   41 1
    43   21   42 1
@<TRIPOS>SUBSTRUCTURE
     1 P2N         1 TEMP              0 ****  ****    0 ROOT
