@<TRIPOS>MOLECULE
molecule
   16    16     1     0     0
SMALL
bcc


@<TRIPOS>ATOM
      1 C13          0.0000     0.0000     0.0000 c3         1 P2O       0.136400
      2 C9           3.2510     0.0000     1.9730 c3         1 P2O       0.235100
      3 C11          0.7630    -0.0090     2.1520 c          1 P2O       0.825600
      4 C8           3.7060     1.3890     2.1560 c1         1 P2O      -0.179100
      5 C7           4.0520     2.5020     2.2910 c1         1 P2O      -0.120500
      6 C14          1.5420     0.0000     0.0000 c3         1 P2O       0.036000
      7 O11          0.7540    -0.0130     3.3670 o          1 P2O      -0.625500
      8 N10          1.8910     0.0000     1.4290 n          1 P2O      -0.545800
      9 O12         -0.3530    -0.0070     1.4130 os         1 P2O      -0.382900
     10 H131        -0.3050    -0.9520    -0.4170 h1         1 P2O       0.082200
     11 H132        -0.3050     0.9520    -0.4170 h1         1 P2O       0.082200
     12 H91          3.9160    -0.5100     1.2860 h1         1 P2O       0.076700
     13 H92          3.2590    -0.5110     2.9280 h1         1 P2O       0.076700
     14 H7           4.3880     3.5250     2.4100 ha         1 P2O       0.167500
     15 H141         2.0120     0.9500    -0.2230 h1         1 P2O       0.067700
     16 H142         2.0350    -0.8810    -0.3920 h1         1 P2O       0.067700
@<TRIPOS>BOND
     1     1     6 1
     2     1     9 1
     3     1    10 1
     4     1    11 1
     5     2     4 1
     6     2     8 1
     7     2    12 1
     8     2    13 1
     9     3     7 2
    10     3     8 1
    11     3     9 1
    12     4     5 3
    13     5    14 1
    14     6     8 1
    15     6    15 1
    16     6    16 1
@<TRIPOS>SUBSTRUCTURE
     1 P2O         1 TEMP              0 ****  ****    0 ROOT
