@<TRIPOS>MOLECULE
P2P
   34    36     1     0     0
SMALL
bcc


@<TRIPOS>ATOM
      1 P           0.5200   -0.4030   -1.3590 p5        1 P2P      1.332900
      2 O1P         1.8550   -0.0880   -1.9760 o         1 P2P     -0.926167
      3 O2P         0.4550   -1.3970   -0.2460 o         1 P2P     -0.926167
      4 O3P        -0.5920   -0.4130   -2.3920 o         1 P2P     -0.926167
      5 O6'         0.1280    1.1120   -0.5850 os        1 P2P     -0.561200
      6 C5'         0.6230    2.2430   -1.1700 c3        1 P2P      0.225400
      7 C4'        -0.4150    2.8570   -2.1470 c3        1 P2P      0.053100
      8 O5'        -0.0540    4.2380   -2.4140 os        1 P2P     -0.424600
      9 C3'        -0.4290    2.1110   -3.4960 c3        1 P2P      0.088100
     10 O3'        -1.7290    1.6470   -3.7970 oh        1 P2P     -0.702800
     11 C2'        -0.0180    3.1620   -4.5430 c3        1 P2P      0.111100
     12 O2'        -0.6870    3.0940   -5.7750 oh        1 P2P     -0.610800
     13 C1'        -0.2180    4.5260   -3.7920 c3        1 P2P      0.211800
     14 C8         -2.7760    4.5700   -3.9280 cc        1 P2P      0.481700
     15 N9         -3.8080    5.4110   -4.1740 nd        1 P2P     -0.688700
     16 C4         -3.2030    6.6550   -4.4540 ca        1 P2P      0.577300
     17 C5         -1.7340    6.4970   -4.3560 ca        1 P2P     -0.331800
     18 N7         -1.5110    5.1600   -4.0360 na        1 P2P     -0.128300
     19 N3         -3.7630    7.8540   -4.7730 nb        1 P2P     -0.729000
     20 C2         -2.8490    8.8500   -4.9790 ca        1 P2P      0.805300
     21 N1         -1.4700    8.8100   -4.9110 nb        1 P2P     -0.712000
     22 C6         -0.9300    7.6220   -4.5970 ca        1 P2P      0.462200
     23 O11        -3.3450   10.1050   -5.3100 oh        1 P2P     -0.611300
     24 H5'1        1.5750    2.0300   -1.7340 h1        1 P2P      0.010700
     25 H5'2        0.8210    3.0210   -0.3770 h1        1 P2P      0.010700
     26 H4'        -1.4350    2.8620   -1.6830 h1        1 P2P      0.057700
     27 H3'         0.2840    1.2220   -3.4380 h1        1 P2P      0.176700
     28 HO3'       -1.7720    0.7400   -3.4070 ho        1 P2P      0.513000
     29 H2'         1.0780    3.0750   -4.7790 h1        1 P2P      0.080700
     30 HO2'       -1.5000    2.5830   -5.6430 ho        1 P2P      0.429000
     31 H1'         0.5720    5.2840   -4.0580 h2        1 P2P      0.067700
     32 H8         -2.8690    3.4930   -3.6670 h5        1 P2P      0.127800
     33 H6          0.1710    7.5840   -4.5380 h4        1 P2P      0.028100
     34 HO11       -4.3130   10.0420   -5.3250 ho        1 P2P      0.429000
@<TRIPOS>BOND
     1    1    2 1   
     2    1    3 1   
     3    1    4 1   
     4    1    5 1   
     5    5    6 1   
     6    6    7 1   
     7    6   24 1   
     8    6   25 1   
     9    7    8 1   
    10    7    9 1   
    11    7   26 1   
    12    8   13 1   
    13    9   10 1   
    14    9   11 1   
    15    9   27 1   
    16   10   28 1   
    17   11   12 1   
    18   11   13 1   
    19   11   29 1   
    20   12   30 1   
    21   13   18 1   
    22   13   31 1   
    23   14   15 2   
    24   14   18 1   
    25   14   32 1   
    26   15   16 1   
    27   16   17 ar  
    28   16   19 ar  
    29   17   18 1   
    30   17   22 ar  
    31   19   20 ar  
    32   20   21 ar  
    33   20   23 1   
    34   21   22 ar  
    35   22   33 1   
    36   23   34 1   
@<TRIPOS>SUBSTRUCTURE
     1 P2P         1 TEMP              0 ****  ****    0 ROOT
