@<TRIPOS>MOLECULE
molecule
   34    36     1     0     0
SMALL
bcc


@<TRIPOS>ATOM
      1 P            0.0000     0.0000     0.0000 p5         1 P2P       1.140900
      2 O1P          1.4790     0.0000     0.0000 o          1 P2P      -0.902833
      3 O2P         -0.5360     0.0000     1.5190 o          1 P2P      -0.902833
      4 O3P         -0.5370    -1.3150    -0.7580 o          1 P2P      -0.902833
      5 O6'         -0.5380     1.3130    -0.7590 os         1 P2P      -0.526200
      6 C5'         -0.0310     1.2560    -2.0930 c3         1 P2P       0.166400
      7 C4'         -0.5080     2.4820    -2.8730 c3         1 P2P       0.102100
      8 O5'         -0.0080     3.6940    -2.2620 os         1 P2P      -0.339600
      9 C3'          0.0880     2.4880    -4.2980 c3         1 P2P       0.089100
     10 O3'         -0.8590     1.9750    -5.2380 oh         1 P2P      -0.579800
     11 C2'          0.3790     3.9770    -4.5810 c3         1 P2P       0.073100
     12 O2'         -0.3760     4.4300    -5.7080 oh         1 P2P      -0.576800
     13 C1'         -0.0770     4.7000    -3.2940 c3         1 P2P       0.233800
     14 C8          -2.5680     4.5950    -2.9690 cc         1 P2P       0.513700
     15 N9          -3.6190     5.3000    -3.2810 nd         1 P2P      -0.706700
     16 C4          -3.2470     6.3900    -3.9760 ca         1 P2P       0.631300
     17 C5          -1.8440     6.3420    -4.0890 ca         1 P2P      -0.339800
     18 N7          -1.4500     5.1870    -3.4430 na         1 P2P      -0.132300
     19 N3          -3.8980     7.4170    -4.5250 nb         1 P2P      -0.726000
     20 C2          -3.2350     8.3640    -5.1630 ca         1 P2P       0.850300
     21 N1          -1.9170     8.3410    -5.2890 nb         1 P2P      -0.772000
     22 C6          -1.1950     7.3570    -4.7740 ca         1 P2P       0.490200
     23 O11         -3.9270     9.3940    -5.7090 oh         1 P2P      -0.609300
     24 H5'1        -0.3910     0.3570    -2.5780 h1         1 P2P       0.057200
     25 H5'2         1.0520     1.2440    -2.0680 h1         1 P2P       0.057200
     26 H4'         -1.5900     2.5070    -2.9210 h1         1 P2P       0.063700
     27 H3'          1.0060     1.9130    -4.3240 h1         1 P2P       0.062700
     28 HO3'        -0.4560     1.2930    -5.7500 ho         1 P2P       0.395000
     29 H2'          1.4390     4.1290    -4.7430 h1         1 P2P       0.042700
     30 HO2'         0.1740     4.4330    -6.4740 ho         1 P2P       0.391000
     31 H1'          0.5960     5.5170    -3.0660 h2         1 P2P       0.085700
     32 H8          -2.5880     3.6690    -2.4070 h5         1 P2P       0.127800
     33 H6          -0.1180     7.3480    -4.8830 h4         1 P2P       0.017100
     34 HO11        -4.0970    10.0440    -5.0470 ho         1 P2P       0.424000
@<TRIPOS>BOND
     1     1     2 1
     2     1     3 1
     3     1     4 1
     4     1     5 1
     5     5     6 1
     6     6     7 1
     7     6    24 1
     8     6    25 1
     9     7     8 1
    10     7     9 1
    11     7    26 1
    12     8    13 1
    13     9    10 1
    14     9    11 1
    15     9    27 1
    16    10    28 1
    17    11    12 1
    18    11    13 1
    19    11    29 1
    20    12    30 1
    21    13    18 1
    22    13    31 1
    23    14    15 2
    24    14    18 1
    25    14    32 1
    26    15    16 1
    27    16    17 ar
    28    16    19 ar
    29    17    18 1
    30    17    22 ar
    31    19    20 ar
    32    20    21 ar
    33    20    23 1
    34    21    22 ar
    35    22    33 1
    36    23    34 1
@<TRIPOS>SUBSTRUCTURE
     1 P2P         1 TEMP              0 ****  ****    0 ROOT
