@<TRIPOS>MOLECULE
P2S
   37    36     1     0     0
SMALL
bcc


@<TRIPOS>ATOM
      1 OP3          0.0000     0.0000     0.0000 o          1 P2S      -0.711167
      2 P            1.4800     0.0000     0.0000 p5         1 P2S       0.737700
      3 OP1          2.0170     0.0000     1.5190 o          1 P2S      -0.711167
      4 OP2          2.0170     1.3150    -0.7580 o          1 P2S      -0.711167
      5 NS           2.0280    -1.3380    -0.7730 n2         1 P2S      -0.567700
      6 S            1.5940    -2.6930    -0.3180 s6         1 P2S       0.306700
      7 OS           0.6790    -2.4790     0.7480 o          1 P2S      -0.498800
      8 CD           0.9090    -3.5380    -1.7700 c3         1 P2S       0.095400
      9 CE          -0.3040    -2.7620    -2.2860 c3         1 P2S      -0.109700
     10 C2          -0.9960    -3.5660    -3.3560 c          1 P2S       0.995600
     11 O2T         -2.0930    -3.0800    -3.9570 o          1 P2S      -0.944800
     12 O2          -0.5640    -4.6490    -3.6740 o          1 P2S      -0.944800
     13 CF           0.1570    -1.4250    -2.8700 c3         1 P2S      -0.072400
     14 CH          -1.0650    -0.5750    -3.2240 c3         1 P2S       0.019900
     15 CG           3.1000    -3.6030     0.1250 c3         1 P2S      -0.044600
     16 CB           3.7470    -2.9520     1.3490 c3         1 P2S       0.014600
     17 CA           5.0170    -3.7200     1.7220 c3         1 P2S      -0.198500
     18 N            4.6610    -5.0800     2.1470 nz         1 P2S       0.024400
     19 C1           5.7210    -3.0090     2.8500 c          1 P2S       0.986600
     20 O1           6.4850    -1.9350     2.5940 o          1 P2S      -0.859300
     21 O1T          5.5970    -3.4060     3.9840 o          1 P2S      -0.859300
     22 HD1          1.6620    -3.5900    -2.5470 h1         1 P2S       0.027700
     23 HD2          0.6050    -4.5410    -1.4940 h1         1 P2S       0.027700
     24 HE          -0.9920    -2.5810    -1.4690 hc         1 P2S       0.058700
     25 HF1          0.7430    -1.6040    -3.7630 hc         1 P2S       0.053700
     26 HF2          0.7620    -0.9010    -2.1400 hc         1 P2S       0.053700
     27 HH1         -0.8030     0.4750    -3.1710 hc         1 P2S      -0.008967
     28 HH2         -1.8650    -0.7840    -2.5240 hc         1 P2S      -0.008967
     29 HH3         -1.3930    -0.8150    -4.2290 hc         1 P2S      -0.008967
     30 HG1          3.7940    -3.5790    -0.7070 h1         1 P2S       0.006200
     31 HG2          2.8460    -4.6310     0.3540 h1         1 P2S       0.006200
     32 HB1          4.0010    -1.9240     1.1200 hc         1 P2S       0.097700
     33 HB2          3.0540    -2.9770     2.1810 hc         1 P2S       0.097700
     34 HA           5.6740    -3.7700     0.8610 hx         1 P2S       0.066700
     35 HN1          3.8220    -5.0500     2.6920 hn         1 P2S       0.194133
     36 HN2          5.4040    -5.4610     2.6990 hn         1 P2S       0.194133
     37 HN3          4.5160    -5.6540     1.3410 hn         1 P2S       0.194133
@<TRIPOS>BOND
     1     1     2 1   
     2     2     3 1   
     3     2     4 1   
     4     2     5 1   
     5     5     6 2   
     6     6     7 2   
     7     6     8 1   
     8     6    15 1   
     9     8     9 1   
    10     8    22 1   
    11     8    23 1   
    12     9    10 1   
    13     9    13 1   
    14     9    24 1   
    15    10    11 1   
    16    10    12 1   
    17    13    14 1   
    18    13    25 1   
    19    13    26 1   
    20    14    27 1   
    21    14    28 1   
    22    14    29 1   
    23    15    16 1   
    24    15    30 1   
    25    15    31 1   
    26    16    17 1   
    27    16    32 1   
    28    16    33 1   
    29    17    18 1   
    30    17    19 1   
    31    17    34 1   
    32    18    35 1   
    33    18    36 1   
    34    18    37 1   
    35    19    20 1   
    36    19    21 1   
@<TRIPOS>SUBSTRUCTURE
     1 P2S         1 TEMP              0 ****  ****    0 ROOT
