@<TRIPOS>MOLECULE
molecule
   39    42     1     0     0
SMALL
bcc


@<TRIPOS>ATOM
      1 O1           0.0000     0.0000     0.0000 oh         1 P2X      -0.521100
      2 C22          1.3600     0.0000     0.0000 ca         1 P2X       0.073100
      3 C20          2.0460     0.0000     1.1970 ca         1 P2X      -0.100000
      4 C17          3.4440    -0.0000     1.1930 ca         1 P2X      -0.098800
      5 C18          4.1420     0.0000    -0.0300 ca         1 P2X      -0.040200
      6 C21          3.4310    -0.0000    -1.2250 ca         1 P2X      -0.136000
      7 C23          2.0530    -0.0060    -1.2060 ca         1 P2X      -0.128000
      8 C16          4.4590    -0.0010     2.2450 cc         1 P2X      -0.158200
      9 C12          5.6680    -0.0010     1.6290 cd         1 P2X      -0.068700
     10 N5           5.4900    -0.0000     0.2650 na         1 P2X      -0.170400
     11 C9           6.9750    -0.0000     2.3180 cd         1 P2X       0.458200
     12 C10          8.1580    -0.7700     1.9330 ca         1 P2X      -0.501500
     13 C11          9.1620    -0.4530     2.8680 ca         1 P2X       0.515800
     14 N2           8.6200     0.4400     3.7450 na         1 P2X      -0.023800
     15 C8           9.3200     1.0380     4.8830 c3         1 P2X       0.084000
     16 C13          9.3450     2.5590     4.7250 c3         1 P2X      -0.107600
     17 C14          8.5910     0.6720     6.1780 c3         1 P2X      -0.107600
     18 N3           7.2920     0.6960     3.3870 nc         1 P2X      -0.471100
     19 N4          10.3580    -1.0290     2.7410 nb         1 P2X      -0.777000
     20 C19         10.5940    -1.8760     1.7640 ca         1 P2X       0.732900
     21 N6           9.6830    -2.2020     0.8660 nb         1 P2X      -0.796000
     22 C15          8.4610    -1.6810     0.9080 ca         1 P2X       0.782200
     23 N7           7.5110    -2.0270    -0.0340 nv         1 P2X      -1.077500
     24 H1          -0.3140     0.8880    -0.0420 ho         1 P2X       0.415000
     25 H2           1.5080    -0.1130     2.1310 ha         1 P2X       0.145000
     26 H3           3.9600    -0.0050    -2.1700 ha         1 P2X       0.128000
     27 H4           1.5040    -0.0150    -2.1400 ha         1 P2X       0.141000
     28 H5           4.2790    -0.0010     3.3130 ha         1 P2X       0.165000
     29 H6           6.2280    -0.0000    -0.4120 hn         1 P2X       0.302700
     30 H7          10.3350     0.6620     4.9220 h1         1 P2X       0.087700
     31 H8           8.3340     2.9450     4.7810 hc         1 P2X       0.049533
     32 H9           9.7760     2.8150     3.7640 hc         1 P2X       0.049533
     33 H10          9.9420     2.9950     5.5160 hc         1 P2X       0.049533
     34 H11          8.4640    -0.4020     6.2300 hc         1 P2X       0.049533
     35 H12          9.1730     1.0090     7.0280 hc         1 P2X       0.049533
     36 H13          7.6190     1.1520     6.1930 hc         1 P2X       0.049533
     37 H14         11.5780    -2.3250     1.6920 h5         1 P2X       0.063100
     38 H15          7.5810    -1.6720    -0.9680 hn         1 P2X       0.444300
     39 H16          6.7910    -2.6820     0.1980 hn         1 P2X       0.444300
@<TRIPOS>BOND
     1    20    21 ar
     2    20    19 ar
     3    21    22 ar
     4    19    13 ar
     5    22    23 1
     6    22    12 ar
     7    13    12 ar
     8    13    14 1
     9    12    11 1
    10    16    15 1
    11    14    15 1
    12    14    18 1
    13     8     9 2
    14     8     4 1
    15    11    18 2
    16    11     9 1
    17    15    17 1
    18     9    10 1
    19     3     4 ar
    20     3     2 ar
    21     4     5 ar
    22     1     2 1
    23     2     7 ar
    24    10     5 1
    25     5     6 ar
    26     7     6 ar
    27     1    24 1
    28     3    25 1
    29     6    26 1
    30     7    27 1
    31     8    28 1
    32    10    29 1
    33    15    30 1
    34    16    31 1
    35    16    32 1
    36    16    33 1
    37    17    34 1
    38    17    35 1
    39    17    36 1
    40    20    37 1
    41    23    38 1
    42    23    39 1
@<TRIPOS>SUBSTRUCTURE
     1 P2X         1 TEMP              0 ****  ****    0 ROOT
