@<TRIPOS>MOLECULE
P2X
   39    42     1     0     0
SMALL
bcc


@<TRIPOS>ATOM
      1 O1           0.0000     0.0000     0.0000 oh         1 P2X      -0.500100
      2 C22          1.3600     0.0000     0.0000 ca         1 P2X       0.092100
      3 C20          2.0460     0.0000     1.1970 ca         1 P2X      -0.079000
      4 C17          3.4440    -0.0000     1.1930 ca         1 P2X      -0.091800
      5 C18          4.1420     0.0000    -0.0300 ca         1 P2X      -0.235200
      6 C21          3.4310    -0.0000    -1.2250 ca         1 P2X      -0.088000
      7 C23          2.0530    -0.0060    -1.2060 ca         1 P2X      -0.116000
      8 C16          4.4590    -0.0010     2.2450 cc         1 P2X      -0.125200
      9 C12          5.6680    -0.0010     1.6290 cd         1 P2X      -0.266700
     10 N5           5.4900    -0.0000     0.2650 na         1 P2X       0.356600
     11 C9           6.9750    -0.0000     2.3180 cd         1 P2X       0.507200
     12 C10          8.1580    -0.7700     1.9330 ca         1 P2X      -0.513500
     13 C11          9.1620    -0.4530     2.8680 ca         1 P2X       0.322800
     14 N2           8.6200     0.4400     3.7450 na         1 P2X       0.382200
     15 C8           9.3200     1.0380     4.8830 c3         1 P2X      -0.033000
     16 C13          9.3450     2.5590     4.7250 c3         1 P2X      -0.011600
     17 C14          8.5910     0.6720     6.1780 c3         1 P2X      -0.011600
     18 N3           7.2920     0.6960     3.3870 nc         1 P2X      -0.600100
     19 N4          10.3580    -1.0290     2.7410 nb         1 P2X      -0.650000
     20 C19         10.5940    -1.8760     1.7640 ca         1 P2X       0.677900
     21 N6           9.6830    -2.2020     0.8660 nb         1 P2X      -0.688000
     22 C15          8.4610    -1.6810     0.9080 ca         1 P2X       0.615200
     23 N7           7.5110    -2.0270    -0.0340 nv         1 P2X      -0.652500
     24 H1          -0.3140     0.8880    -0.0420 ho         1 P2X       0.399000
     25 H2           1.5080    -0.1130     2.1310 ha         1 P2X       0.115000
     26 H3           3.9600    -0.0050    -2.1700 ha         1 P2X       0.099000
     27 H4           1.5040    -0.0150    -2.1400 ha         1 P2X       0.111000
     28 H5           4.2790    -0.0010     3.3130 ha         1 P2X       0.137000
     29 H6           6.2280    -0.0000    -0.4120 hn         1 P2X       0.121700
     30 H7          10.3350     0.6620     4.9220 h1         1 P2X       0.057700
     31 H8           8.3340     2.9450     4.7810 hc         1 P2X       0.016533
     32 H9           9.7760     2.8150     3.7640 hc         1 P2X       0.016533
     33 H10          9.9420     2.9950     5.5160 hc         1 P2X       0.016533
     34 H11          8.4640    -0.4020     6.2300 hc         1 P2X       0.016533
     35 H12          9.1730     1.0090     7.0280 hc         1 P2X       0.016533
     36 H13          7.6190     1.1520     6.1930 hc         1 P2X       0.016533
     37 H14         11.5780    -2.3250     1.6920 h5         1 P2X      -0.001900
     38 H15          7.5810    -1.6720    -0.9680 hn         1 P2X       0.285300
     39 H16          6.7910    -2.6820     0.1980 hn         1 P2X       0.285300
@<TRIPOS>BOND
     1     1     2 1   
     2     1    24 1   
     3     2     3 ar  
     4     2     7 ar  
     5     3     4 ar  
     6     3    25 1   
     7     4     5 ar  
     8     4     8 1   
     9     5     6 ar  
    10     5    10 1   
    11     6     7 ar  
    12     6    26 1   
    13     7    27 1   
    14     8     9 2   
    15     8    28 1   
    16     9    10 1   
    17     9    11 1   
    18    10    29 1   
    19    11    12 1   
    20    11    18 2   
    21    12    13 ar  
    22    12    22 ar  
    23    13    14 1   
    24    13    19 ar  
    25    14    15 1   
    26    14    18 1   
    27    15    16 1   
    28    15    17 1   
    29    15    30 1   
    30    16    31 1   
    31    16    32 1   
    32    16    33 1   
    33    17    34 1   
    34    17    35 1   
    35    17    36 1   
    36    19    20 ar  
    37    20    21 ar  
    38    20    37 1   
    39    21    22 ar  
    40    22    23 1   
    41    23    38 1   
    42    23    39 1   
@<TRIPOS>SUBSTRUCTURE
     1 P2X         1 TEMP              0 ****  ****    0 ROOT
