@<TRIPOS>MOLECULE
molecule
   40    42     1     0     0
SMALL
bcc


@<TRIPOS>ATOM
      1 C16          0.0000     0.0000     0.0000 c3         1 P2Z       0.150600
      2 N2           1.4690     0.0000     0.0000 n3         1 P2Z      -0.730600
      3 C15          1.9960     0.0000     1.3710 c3         1 P2Z       0.150600
      4 C14          1.9960    -1.1380    -0.7660 c3         1 P2Z       0.161800
      5 C13          1.6320    -0.9710    -2.2430 c3         1 P2Z      -0.118400
      6 C12          2.1800    -2.1550    -3.0400 c3         1 P2Z       0.050300
      7 N1           1.8320    -1.9960    -4.4540 na         1 P2Z      -0.195100
      8 C1           2.7300    -1.3140    -5.2700 ca         1 P2Z       0.084700
      9 C17          3.6040    -0.4010    -4.6880 ca         1 P2Z      -0.180500
     10 C5           4.5130     0.2900    -5.4670 ca         1 P2Z      -0.095500
     11 C6           4.5590     0.0790    -6.8320 ca         1 P2Z      -0.155000
     12 C7           3.6940    -0.8230    -7.4210 ca         1 P2Z      -0.076500
     13 C2           2.7770    -1.5210    -6.6450 ca         1 P2Z       0.017900
     14 S1           1.6790    -2.6580    -7.4210 ss         1 P2Z      -0.258800
     15 C3           0.4150    -2.8900    -6.2190 ca         1 P2Z       0.017900
     16 C4           0.6260    -2.5410    -4.8900 ca         1 P2Z       0.084700
     17 C11         -0.3940    -2.7370    -3.9660 ca         1 P2Z      -0.180500
     18 C10         -1.6010    -3.2800    -4.3630 ca         1 P2Z      -0.095500
     19 C9          -1.8030    -3.6330    -5.6830 ca         1 P2Z      -0.155000
     20 C8          -0.8040    -3.4320    -6.6090 ca         1 P2Z      -0.076500
     21 H1          -0.3610     0.4830    -0.9000 h1         1 P2Z       0.032867
     22 H2          -0.3610     0.5380     0.8680 h1         1 P2Z       0.032867
     23 H3          -0.3610    -1.0210     0.0320 h1         1 P2Z       0.032867
     24 H5           3.0770     0.0690     1.3430 h1         1 P2Z       0.032867
     25 H6           1.5950     0.8480     1.9120 h1         1 P2Z       0.032867
     26 H7           1.7060    -0.9170     1.8700 h1         1 P2Z       0.032867
     27 H8           1.5650    -2.0580    -0.3890 h1         1 P2Z       0.032700
     28 H9           3.0740    -1.1760    -0.6620 h1         1 P2Z       0.032700
     29 H10          0.5550    -0.9330    -2.3470 hc         1 P2Z       0.063200
     30 H11          2.0640    -0.0510    -2.6190 hc         1 P2Z       0.063200
     31 H12          1.7490    -3.0750    -2.6630 h1         1 P2Z       0.058700
     32 H13          3.2580    -2.1930    -2.9360 h1         1 P2Z       0.058700
     33 H14          3.5730    -0.2320    -3.6190 ha         1 P2Z       0.140000
     34 H15          5.1910     0.9980    -5.0060 ha         1 P2Z       0.132000
     35 H16          5.2710     0.6230    -7.4400 ha         1 P2Z       0.134000
     36 H17          3.7310    -0.9880    -8.4910 ha         1 P2Z       0.141000
     37 H18         -0.2420    -2.4630    -2.9290 ha         1 P2Z       0.140000
     38 H19         -2.3880    -3.4390    -3.6350 ha         1 P2Z       0.132000
     39 H20         -2.7500    -4.0590    -5.9920 ha         1 P2Z       0.134000
     40 H21         -0.9640    -3.7090    -7.6430 ha         1 P2Z       0.141000
@<TRIPOS>BOND
     1     1     2 1
     2     2     3 1
     3     2     4 1
     4     4     5 1
     5     5     6 1
     6     6     7 1
     7    17    18 ar
     8    17    16 ar
     9    18    19 ar
    10     7    16 1
    11     7     8 1
    12    16    15 ar
    13    19    20 ar
    14    15    20 ar
    15    15    14 1
    16    14    13 1
    17     8    13 ar
    18     8     9 ar
    19    13    12 ar
    20     9    10 ar
    21    12    11 ar
    22    10    11 ar
    23     1    21 1
    24     1    22 1
    25     1    23 1
    26     3    24 1
    27     3    25 1
    28     3    26 1
    29     4    27 1
    30     4    28 1
    31     5    29 1
    32     5    30 1
    33     6    31 1
    34     6    32 1
    35     9    33 1
    36    10    34 1
    37    11    35 1
    38    12    36 1
    39    17    37 1
    40    18    38 1
    41    19    39 1
    42    20    40 1
@<TRIPOS>SUBSTRUCTURE
     1 P2Z         1 TEMP              0 ****  ****    0 ROOT
