@<TRIPOS>MOLECULE
P30
   72    77     1     0     0
SMALL
bcc


@<TRIPOS>ATOM
      1 N1          0.1200    0.0990    0.3920 n         1 P30     -0.530400
      2 C3          1.5130    0.3460    0.4780 c         1 P30      0.778100
      3 O4          2.0930    0.4120    1.5830 o         1 P30     -0.601100
      4 N5          2.1940    0.5140   -0.7440 n         1 P30     -0.458100
      5 C7          3.6010    0.5090   -0.8460 ca        1 P30      0.058600
      6 C8          5.5710    0.0600   -2.2000 ca        1 P30     -0.092000
      7 C10         4.1940    0.0140   -2.0320 ca        1 P30     -0.157500
      8 C12         6.4030    0.5830   -1.1990 ca        1 P30     -0.121500
      9 C13         4.4380    1.0410    0.1570 ca        1 P30     -0.157500
     10 C15         5.8170    1.0720   -0.0240 ca        1 P30     -0.092000
     11 C17         7.8400    0.6090   -1.3890 cc        1 P30      0.367800
     12 C18         8.5640   -0.1870   -2.3170 cd        1 P30     -0.211600
     13 N20         9.8930    0.1630   -2.1560 na        1 P30     -0.118000
     14 C21         9.9420    1.1660   -1.1300 cd        1 P30      0.426800
     15 N22         8.7110    1.4420   -0.6600 nc        1 P30     -0.616000
     16 S23        11.5370    1.6920   -0.8300 ss        1 P30     -0.028200
     17 C24        11.1570   -0.1480   -2.6650 ca        1 P30     -0.043200
     18 C25        12.1740    0.6310   -2.0160 ca        1 P30     -0.042100
     19 C26        11.4880   -1.0700   -3.6610 ca        1 P30     -0.081000
     20 C28        12.8250   -1.2230   -4.0200 ca        1 P30     -0.188000
     21 C30        13.5010    0.4680   -2.3780 ca        1 P30     -0.113000
     22 C32        13.8190   -0.4620   -3.3850 ca        1 P30      0.134100
     23 O33        15.1620   -0.5270   -3.6930 os        1 P30     -0.320900
     24 C34        15.5600   -1.6020   -4.5530 c3        1 P30      0.128400
     25 C37        17.0950   -1.5560   -4.5860 c3        1 P30      0.171800
     26 N40        17.7090   -2.3070   -3.5040 n3        1 P30     -0.732600
     27 C41        18.9670   -1.7260   -3.0530 c3        1 P30      0.137300
     28 C44        19.6230   -2.5500   -1.9390 c3        1 P30      0.126400
     29 O47        19.7590   -3.9190   -2.3050 os        1 P30     -0.414600
     30 C48        18.5120   -4.5030   -2.6620 c3        1 P30      0.126400
     31 C51        17.8320   -3.7280   -3.7970 c3        1 P30      0.137300
     32 C54        -0.7030    0.1530    1.5170 cc        1 P30      0.433200
     33 N55        -2.0600    0.3340    1.4750 nd        1 P30     -0.420300
     34 O56        -2.5290    0.2640    2.7020 os        1 P30     -0.115100
     35 C57        -1.4760    0.0440    3.6260 cd        1 P30      0.276000
     36 C58        -0.2960   -0.0360    2.9200 cc        1 P30     -0.340600
     37 C60        -1.8480   -0.0500    5.0600 c3        1 P30     -0.085300
     38 C61        -0.5950   -0.2900    5.8940 c3        1 P30     -0.089767
     39 C65        -2.5110    1.2530    5.4980 c3        1 P30     -0.089767
     40 C69        -2.8230   -1.2070    5.2580 c3        1 P30     -0.089767
     41 H1         -0.3380    0.2350   -0.4840 hn        1 P30      0.325500
     42 H2          1.7200    0.2530   -1.5820 hn        1 P30      0.310500
     43 H3          6.0110   -0.3190   -3.1350 ha        1 P30      0.143500
     44 H4          3.5720   -0.4050   -2.8370 ha        1 P30      0.149000
     45 H5          4.0080    1.4260    1.0960 ha        1 P30      0.149000
     46 H6          6.4490    1.4920    0.7750 ha        1 P30      0.143500
     47 H7          8.2320   -0.9400   -3.0290 h4        1 P30      0.185000
     48 H8         10.7090   -1.6660   -4.1570 ha        1 P30      0.146000
     49 H9         13.0860   -1.9440   -4.8070 ha        1 P30      0.144000
     50 H10        14.3050    1.0470   -1.8990 ha        1 P30      0.164000
     51 H11        15.1580   -1.4100   -5.5830 h1        1 P30      0.045700
     52 H12        15.1640   -2.5750   -4.1630 h1        1 P30      0.045700
     53 H13        17.4060   -0.4750   -4.5110 h1        1 P30      0.051700
     54 H14        17.4160   -1.9390   -5.5990 h1        1 P30      0.051700
     55 H16        18.7480   -0.6970   -2.6530 h1        1 P30      0.039950
     56 H17        19.7040   -1.6230   -3.9020 h1        1 P30      0.039950
     57 H18        20.6750   -2.2000   -1.7700 h1        1 P30      0.055700
     58 H19        19.0320   -2.4720   -0.9890 h1        1 P30      0.055700
     59 H20        17.8460   -4.5500   -1.7600 h1        1 P30      0.055700
     60 H21        18.7750   -5.5370   -3.0050 h1        1 P30      0.055700
     61 H22        18.4140   -3.9080   -4.7480 h1        1 P30      0.039950
     62 H23        16.7950   -4.1410   -3.9420 h1        1 P30      0.039950
     63 H24         0.7210   -0.1860    3.2730 ha        1 P30      0.205000
     64 H25         0.1290    0.5490    5.7600 hc        1 P30      0.045033
     65 H26        -0.8720   -0.3580    6.9730 hc        1 P30      0.045033
     66 H27        -0.1000   -1.2420    5.5880 hc        1 P30      0.045033
     67 H28        -3.4120    1.4530    4.8700 hc        1 P30      0.045033
     68 H29        -1.8000    2.1060    5.3910 hc        1 P30      0.045033
     69 H30        -2.8230    1.1760    6.5670 hc        1 P30      0.045033
     70 H31        -2.3430   -2.1730    4.9720 hc        1 P30      0.045033
     71 H32        -3.1310   -1.2610    6.3290 hc        1 P30      0.045033
     72 H33        -3.7300   -1.0550    4.6250 hc        1 P30      0.045033
@<TRIPOS>BOND
     1    1    2 1   
     2    1   32 1   
     3    1   41 1   
     4    2    3 2   
     5    2    4 1   
     6    4    5 1   
     7    4   42 1   
     8    5    7 ar  
     9    5    9 ar  
    10    6    7 ar  
    11    6    8 ar  
    12    6   43 1   
    13    7   44 1   
    14    8   10 ar  
    15    8   11 1   
    16    9   10 ar  
    17    9   45 1   
    18   10   46 1   
    19   11   12 2   
    20   11   15 1   
    21   12   13 1   
    22   12   47 1   
    23   13   14 1   
    24   13   17 1   
    25   14   15 2   
    26   14   16 1   
    27   16   18 1   
    28   17   18 ar  
    29   17   19 ar  
    30   18   21 ar  
    31   19   20 ar  
    32   19   48 1   
    33   20   22 ar  
    34   20   49 1   
    35   21   22 ar  
    36   21   50 1   
    37   22   23 1   
    38   23   24 1   
    39   24   25 1   
    40   24   51 1   
    41   24   52 1   
    42   25   26 1   
    43   25   53 1   
    44   25   54 1   
    45   26   27 1   
    46   26   31 1   
    47   27   28 1   
    48   27   55 1   
    49   27   56 1   
    50   28   29 1   
    51   28   57 1   
    52   28   58 1   
    53   29   30 1   
    54   30   31 1   
    55   30   59 1   
    56   30   60 1   
    57   31   61 1   
    58   31   62 1   
    59   32   33 2   
    60   32   36 1   
    61   33   34 1   
    62   34   35 1   
    63   35   36 2   
    64   35   37 1   
    65   36   63 1   
    66   37   38 1   
    67   37   39 1   
    68   37   40 1   
    69   38   64 1   
    70   38   65 1   
    71   38   66 1   
    72   39   67 1   
    73   39   68 1   
    74   39   69 1   
    75   40   70 1   
    76   40   71 1   
    77   40   72 1   
@<TRIPOS>SUBSTRUCTURE
     1 P30         1 TEMP              0 ****  ****    0 ROOT
