@<TRIPOS>MOLECULE
P31
   44    47     1     0     0
SMALL
bcc


@<TRIPOS>ATOM
      1 C1           0.0000     0.0000     0.0000 ca         1 P31      -0.188900
      2 C2           1.3870     0.0000     0.0000 ca         1 P31       0.421200
      3 N4           2.0760     0.0000     1.1220 nb         1 P31      -0.567000
      4 C5          -0.6790    -0.0010     1.2050 ca         1 P31      -0.012000
      5 C7           0.0730    -0.0000     2.3820 ca         1 P31      -0.204100
      6 C8           1.4790     0.0000     2.3050 ca         1 P31       0.231800
      7 N9           1.9510    -0.0000     3.5970 na         1 P31       0.263900
      8 C11         -0.2590     0.0000     3.8080 cc         1 P31      -0.137400
      9 C12         -1.6410    -0.0010     4.4070 c3         1 P31       0.143100
     10 C15         -2.1510    -1.4160     4.4940 ca         1 P31      -0.271600
     11 C16         -2.8540    -1.9700     3.4420 ca         1 P31       0.460200
     12 N18         -3.3050    -3.2080     3.5080 nb         1 P31      -0.643000
     13 C19         -3.1040    -3.9650     4.5750 ca         1 P31       0.517200
     14 C20         -2.4030    -3.4720     5.6710 ca         1 P31      -0.310300
     15 C22         -1.9130    -2.1790     5.6300 ca         1 P31      -0.013000
     16 N24         -3.5970    -5.2650     4.6010 nu         1 P31      -0.524900
     17 C26         -3.3780    -6.1080     5.7780 c3         1 P31       0.230100
     18 C29         -4.0070    -7.4590     5.5530 ca         1 P31      -0.207600
     19 C30          0.9040     0.0000     4.4780 cd         1 P31      -0.259100
     20 C32         -3.2790    -8.4820     4.9740 ca         1 P31       0.413200
     21 N34         -3.8230    -9.6660     4.7730 nb         1 P31      -0.513000
     22 C35         -5.0720    -9.9220     5.1130 ca         1 P31       0.267600
     23 C36         -5.8600    -8.9490     5.6960 ca         1 P31      -0.160300
     24 C38         -5.3200    -7.6930     5.9280 ca         1 P31      -0.057000
     25 C40         -5.6480   -11.2920     4.8560 c3         1 P31       0.540600
     26 F41         -6.6230   -11.5750     5.8180 f          1 P31      -0.202633
     27 F42         -6.2260   -11.3230     3.5830 f          1 P31      -0.202633
     28 F43         -4.6280   -12.2480     4.9300 f          1 P31      -0.202633
     29 Cl1         -0.8760     0.0070    -1.4990 cl         1 P31      -0.014400
     30 H1           1.9160     0.0000    -0.9450 h4         1 P31      -0.012900
     31 H2          -1.7620    -0.0010     1.2350 ha         1 P31       0.118000
     32 H3           2.9180    -0.0010     3.8550 hn         1 P31       0.119700
     33 H4          -2.3060     0.5850     3.7830 hc         1 P31       0.017700
     34 H5          -1.6050     0.4310     5.4000 hc         1 P31       0.017700
     35 H6          -3.0380    -1.3800     2.5530 h4         1 P31      -0.019900
     36 H7          -2.2380    -4.0940     6.5420 ha         1 P31       0.120000
     37 H8          -1.3640    -1.7680     6.4680 ha         1 P31       0.104000
     38 H9          -4.1010    -5.6250     3.8150 hn         1 P31       0.304800
     39 H10         -3.8270    -5.6410     6.6460 h1         1 P31       0.020700
     40 H11         -2.3140    -6.2290     5.9420 h1         1 P31       0.020700
     41 H12          0.9990     0.0010     5.5570 h4         1 P31       0.143000
     42 H13         -2.2510    -8.3090     4.6820 h4         1 P31      -0.005900
     43 H14         -6.8840    -9.1670     5.9750 ha         1 P31       0.131000
     44 H15         -5.9150    -6.9100     6.3840 ha         1 P31       0.122000
@<TRIPOS>BOND
     1     1     2 ar  
     2     1     4 ar  
     3     1    29 1   
     4     2     3 ar  
     5     2    30 1   
     6     3     6 ar  
     7     4     5 ar  
     8     4    31 1   
     9     5     6 ar  
    10     5     8 1   
    11     6     7 1   
    12     7    19 1   
    13     7    32 1   
    14     8     9 1   
    15     8    19 2   
    16     9    10 1   
    17     9    33 1   
    18     9    34 1   
    19    10    11 ar  
    20    10    15 ar  
    21    11    12 ar  
    22    11    35 1   
    23    12    13 ar  
    24    13    14 ar  
    25    13    16 1   
    26    14    15 ar  
    27    14    36 1   
    28    15    37 1   
    29    16    17 1   
    30    16    38 1   
    31    17    18 1   
    32    17    39 1   
    33    17    40 1   
    34    18    20 ar  
    35    18    24 ar  
    36    19    41 1   
    37    20    21 ar  
    38    20    42 1   
    39    21    22 ar  
    40    22    23 ar  
    41    22    25 1   
    42    23    24 ar  
    43    23    43 1   
    44    24    44 1   
    45    25    26 1   
    46    25    27 1   
    47    25    28 1   
@<TRIPOS>SUBSTRUCTURE
     1 P31         1 TEMP              0 ****  ****    0 ROOT
