@<TRIPOS>MOLECULE
P32
   42    43     1     0     0
SMALL
bcc


@<TRIPOS>ATOM
      1 O2           0.0000     0.0000     0.0000 oh         1 P32      -0.578800
      2 C10          1.4020     0.0000     0.0000 c3         1 P32       0.183100
      3 N3           9.2590    -0.2530     0.1190 n1         1 P32      -0.351800
      4 C11          1.9990     1.2780    -0.6330 c3         1 P32       0.123800
      5 N2           1.3470     1.5470    -1.9130 n7         1 P32      -0.583200
      6 C12          2.0340     2.6000    -2.6860 c3         1 P32       0.097200
      7 C15          1.0710     3.0440    -3.8080 c3         1 P32      -0.003767
      8 C13          3.3450     2.0410    -3.3090 c3         1 P32      -0.003767
      9 C9           1.8480     0.0000     1.4550 c3         1 P32       0.178400
     10 O1           3.0390    -0.7620     1.4630 os         1 P32      -0.333900
     11 C4           3.8480    -0.7630     2.5420 ca         1 P32       0.164100
     12 C5           3.3150    -0.9020     3.8110 ca         1 P32      -0.159000
     13 C6           4.1730    -0.9570     4.9020 ca         1 P32      -0.069000
     14 C7           5.5570    -0.8780     4.7350 ca         1 P32      -0.069000
     15 C8           6.0800    -0.7360     3.4560 ca         1 P32       0.086400
     16 C3           5.2190    -0.6760     2.3630 ca         1 P32      -0.178300
     17 N1           7.3170    -0.6360     2.9810 ne         1 P32      -0.416100
     18 C1           7.2250    -0.5380     1.6660 cf         1 P32       0.418200
     19 C2           5.9490    -0.5430     1.2630 c3         1 P32      -0.061400
     20 C16          8.3380    -0.4400     0.7600 ch         1 P32       0.195600
     21 C14          2.3310     3.8310    -1.7910 c3         1 P32      -0.003767
     22 H1           5.7110     0.3910     0.7700 hc         1 P32       0.092200
     23 H2           5.7730    -1.3790     0.5970 hc         1 P32       0.092200
     24 H5           2.2420    -0.9650     3.9520 ha         1 P32       0.121000
     25 H6           3.7630    -1.0660     5.8980 ha         1 P32       0.106000
     26 H7           6.2160    -0.9220     5.5940 ha         1 P32       0.118000
     27 H9C1         1.0970    -0.4670     2.0800 h1         1 P32       0.013700
     28 H9C2         2.0440     1.0110     1.7900 h1         1 P32       0.013700
     29 H10          1.7780    -0.8810    -0.5070 h1         1 P32       0.026700
     30 HA          -0.3140    -0.8280    -0.3250 ho         1 P32       0.399000
     31 H111         1.8420     2.1180     0.0340 h1         1 P32       0.018200
     32 H112         3.0610     1.1390    -0.7920 h1         1 P32       0.018200
     33 HB           0.3970     1.8150    -1.7530 hn         1 P32       0.269800
     34 H131         4.1060     1.9660    -2.5420 hc         1 P32       0.008589
     35 H132         3.1560     1.0590    -3.7270 hc         1 P32       0.008589
     36 H133         3.6860     2.7070    -4.0930 hc         1 P32       0.008589
     37 H141         2.5990     4.6760    -2.4150 hc         1 P32       0.008589
     38 H142         1.4500     4.0770    -1.2100 hc         1 P32       0.008589
     39 H143         3.1520     3.6020    -1.1220 hc         1 P32       0.008589
     40 H151         1.5800     3.7360    -4.4680 hc         1 P32       0.008589
     41 H152         0.2070     3.5300    -3.3720 hc         1 P32       0.008589
     42 H153         0.7500     2.1770    -4.3720 hc         1 P32       0.008589
@<TRIPOS>BOND
     1     1     2 1   
     2     1    30 1   
     3     2     4 1   
     4     2     9 1   
     5     2    29 1   
     6     3    20 3   
     7     4     5 1   
     8     4    31 1   
     9     4    32 1   
    10     5     6 1   
    11     5    33 1   
    12     6     7 1   
    13     6     8 1   
    14     6    21 1   
    15     7    40 1   
    16     7    41 1   
    17     7    42 1   
    18     8    34 1   
    19     8    35 1   
    20     8    36 1   
    21     9    10 1   
    22     9    27 1   
    23     9    28 1   
    24    10    11 1   
    25    11    12 ar  
    26    11    16 ar  
    27    12    13 ar  
    28    12    24 1   
    29    13    14 ar  
    30    13    25 1   
    31    14    15 ar  
    32    14    26 1   
    33    15    16 ar  
    34    15    17 1   
    35    16    19 1   
    36    17    18 2   
    37    18    19 1   
    38    18    20 1   
    39    19    22 1   
    40    19    23 1   
    41    21    37 1   
    42    21    38 1   
    43    21    39 1   
@<TRIPOS>SUBSTRUCTURE
     1 P32         1 TEMP              0 ****  ****    0 ROOT
