@<TRIPOS>MOLECULE
molecule
   42    43     1     0     0
SMALL
bcc


@<TRIPOS>ATOM
      1 O2           0.0000     0.0000     0.0000 oh         1 P32      -0.597800
      2 C10          1.4020     0.0000     0.0000 c3         1 P32       0.148100
      3 N3           9.2590    -0.2530     0.1190 n1         1 P32      -0.328800
      4 C11          1.9990     1.2780    -0.6330 c3         1 P32       0.157800
      5 N2           1.3470     1.5470    -1.9130 n7         1 P32      -0.819200
      6 C12          2.0340     2.6000    -2.6860 c3         1 P32       0.166200
      7 C15          1.0710     3.0440    -3.8080 c3         1 P32      -0.093767
      8 C13          3.3450     2.0410    -3.3090 c3         1 P32      -0.093767
      9 C9           1.8480     0.0000     1.4550 c3         1 P32       0.121400
     10 O1           3.0390    -0.7620     1.4630 os         1 P32      -0.359900
     11 C4           3.8480    -0.7630     2.5420 ca         1 P32       0.152100
     12 C5           3.3150    -0.9020     3.8110 ca         1 P32      -0.177000
     13 C6           4.1730    -0.9570     4.9020 ca         1 P32      -0.102000
     14 C7           5.5570    -0.8780     4.7350 ca         1 P32      -0.094000
     15 C8           6.0800    -0.7360     3.4560 ca         1 P32       0.115400
     16 C3           5.2190    -0.6760     2.3630 ca         1 P32      -0.157300
     17 N1           7.3170    -0.6360     2.9810 ne         1 P32      -0.499100
     18 C1           7.2250    -0.5380     1.6660 ce         1 P32       0.424200
     19 C2           5.9490    -0.5430     1.2630 c3         1 P32      -0.139400
     20 C16          8.3380    -0.4400     0.7600 cg         1 P32       0.215600
     21 C14          2.3310     3.8310    -1.7910 c3         1 P32      -0.093767
     22 H1           5.7110     0.3910     0.7700 hc         1 P32       0.124700
     23 H2           5.7730    -1.3790     0.5970 hc         1 P32       0.124700
     24 H5           2.2420    -0.9650     3.9520 ha         1 P32       0.145000
     25 H6           3.7630    -1.0660     5.8980 ha         1 P32       0.139000
     26 H7           6.2160    -0.9220     5.5940 ha         1 P32       0.150000
     27 H9C1         1.0970    -0.4670     2.0800 h1         1 P32       0.046700
     28 H9C2         2.0440     1.0110     1.7900 h1         1 P32       0.046700
     29 H10          1.7780    -0.8810    -0.5070 h1         1 P32       0.065700
     30 HA          -0.3140    -0.8280    -0.3250 ho         1 P32       0.414000
     31 H111         1.8420     2.1180     0.0340 h1         1 P32       0.040700
     32 H112         3.0610     1.1390    -0.7920 h1         1 P32       0.040700
     33 HB           0.3970     1.8150    -1.7530 hn         1 P32       0.368800
     34 H131         4.1060     1.9660    -2.5420 hc         1 P32       0.038811
     35 H132         3.1560     1.0590    -3.7270 hc         1 P32       0.038811
     36 H133         3.6860     2.7070    -4.0930 hc         1 P32       0.038811
     37 H141         2.5990     4.6760    -2.4150 hc         1 P32       0.038811
     38 H142         1.4500     4.0770    -1.2100 hc         1 P32       0.038811
     39 H143         3.1520     3.6020    -1.1220 hc         1 P32       0.038811
     40 H151         1.5800     3.7360    -4.4680 hc         1 P32       0.038811
     41 H152         0.2070     3.5300    -3.3720 hc         1 P32       0.038811
     42 H153         0.7500     2.1770    -4.3720 hc         1 P32       0.038811
@<TRIPOS>BOND
     1    20     3 3
     2    20    18 1
     3    17    18 2
     4    17    15 1
     5    18    19 1
     6    19    16 1
     7    16    11 ar
     8    16    15 ar
     9    11    12 ar
    10    11    10 1
    11    12    13 ar
    12    13    14 ar
    13    14    15 ar
    14    10     9 1
    15     9     2 1
    16     2     1 1
    17     2     4 1
    18     4     5 1
    19     5     6 1
    20     6     8 1
    21     6    21 1
    22     6     7 1
    23    19    23 1
    24    19    22 1
    25    12    24 1
    26    13    25 1
    27    14    26 1
    28     9    27 1
    29     9    28 1
    30     2    29 1
    31     1    30 1
    32     4    31 1
    33     4    32 1
    34     5    33 1
    35     8    34 1
    36     8    35 1
    37     8    36 1
    38    21    37 1
    39    21    38 1
    40    21    39 1
    41     7    40 1
    42     7    41 1
    43     7    42 1
@<TRIPOS>SUBSTRUCTURE
     1 P32         1 TEMP              0 ****  ****    0 ROOT
