@<TRIPOS>MOLECULE
P33
   52    51     1     0     0
SMALL
bcc


@<TRIPOS>ATOM
      1 O22        -0.6020    2.2670    0.5100 oh        1 P33     -0.599800
      2 C21        -1.0320    0.9650    0.1720 c3        1 P33      0.131400
      3 C20         0.1420    0.0600   -0.1900 c3        1 P33      0.087400
      4 O19         0.8990   -0.1030    1.0080 os        1 P33     -0.438600
      5 C18         2.0710   -0.8920    0.8050 c3        1 P33      0.128900
      6 C17         2.6710   -1.1400    2.1850 c3        1 P33      0.127400
      7 O16         2.4050   -2.5050    2.5020 os        1 P33     -0.428600
      8 C15         2.7790   -2.8310    3.8390 c3        1 P33      0.127400
      9 C14         2.6150   -4.3410    3.9780 c3        1 P33      0.127400
     10 O13         3.9310   -4.8910    3.9930 os        1 P33     -0.429600
     11 C12         3.9200   -6.3170    3.9660 c3        1 P33      0.127400
     12 C11         5.3630   -6.7660    4.1680 c3        1 P33      0.127400
     13 O10         5.4470   -7.2750    5.4980 os        1 P33     -0.429600
     14 C9          6.7870   -7.5800    5.8760 c3        1 P33      0.127400
     15 C8          6.7080   -8.2640    7.2370 c3        1 P33      0.127400
     16 O7          6.9730   -9.6470    7.0110 os        1 P33     -0.428600
     17 C6          6.7660  -10.4350    8.1810 c3        1 P33      0.127400
     18 C5          7.2460  -11.8430    7.8460 c3        1 P33      0.128900
     19 O4          8.4790  -12.0270    8.5380 os        1 P33     -0.438600
     20 C3          9.1270  -13.2450    8.1770 c3        1 P33      0.087400
     21 C2         10.3860  -13.3250    9.0340 c3        1 P33      0.131400
     22 O1         10.0750  -13.4720   10.4040 oh        1 P33     -0.599800
     23 H22         0.0260    2.1750    1.2380 ho        1 P33      0.412000
     24 H211       -1.6130    0.5170    1.0220 h1        1 P33      0.053700
     25 H212       -1.6980    1.0990   -0.7210 h1        1 P33      0.053700
     26 H201       -0.2240   -0.9370   -0.5480 h1        1 P33      0.039200
     27 H202        0.7810    0.5360   -0.9790 h1        1 P33      0.039200
     28 H181        1.8050   -1.8610    0.3060 h1        1 P33      0.045200
     29 H182        2.7900   -0.3200    0.1620 h1        1 P33      0.045200
     30 H171        3.7800   -0.9760    2.1640 h1        1 P33      0.043200
     31 H172        2.2030   -0.4660    2.9510 h1        1 P33      0.043200
     32 H151        3.8420   -2.5260    4.0310 h1        1 P33      0.044200
     33 H152        2.0980   -2.2960    4.5520 h1        1 P33      0.044200
     34 H141        2.0290   -4.7600    3.1180 h1        1 P33      0.044200
     35 H142        2.1010   -4.5910    4.9440 h1        1 P33      0.044200
     36 H121        3.5390   -6.6640    2.9690 h1        1 P33      0.043700
     37 H122        3.2600   -6.7160    4.7820 h1        1 P33      0.043700
     38 H111        5.6240   -7.5820    3.4450 h1        1 P33      0.043700
     39 H112        6.0700   -5.9040    4.0370 h1        1 P33      0.043700
     40 H91         7.2610   -8.2570    5.1170 h1        1 P33      0.044200
     41 H92         7.3750   -6.6270    5.9520 h1        1 P33      0.044200
     42 H81         7.4880   -7.8490    7.9290 h1        1 P33      0.044200
     43 H82         5.6910   -8.1320    7.6910 h1        1 P33      0.044200
     44 H61         5.6720  -10.4440    8.4310 h1        1 P33      0.043200
     45 H62         7.3460  -10.0100    9.0430 h1        1 P33      0.043200
     46 H51         6.5060  -12.6050    8.2060 h1        1 P33      0.045200
     47 H52         7.4000  -11.9580    6.7400 h1        1 P33      0.045200
     48 H31         8.4470  -14.1120    8.3870 h1        1 P33      0.039200
     49 H32         9.3920  -13.2270    7.0880 h1        1 P33      0.039200
     50 H21        11.0160  -12.4090    8.8770 h1        1 P33      0.053700
     51 H22A       10.9710  -14.2450    8.7660 h1        1 P33      0.053700
     52 HO1         9.5150  -12.7240   10.6470 ho        1 P33      0.412000
@<TRIPOS>BOND
     1    1    2 1   
     2    1   23 1   
     3    2    3 1   
     4    2   24 1   
     5    2   25 1   
     6    3    4 1   
     7    3   26 1   
     8    3   27 1   
     9    4    5 1   
    10    5    6 1   
    11    5   28 1   
    12    5   29 1   
    13    6    7 1   
    14    6   30 1   
    15    6   31 1   
    16    7    8 1   
    17    8    9 1   
    18    8   32 1   
    19    8   33 1   
    20    9   10 1   
    21    9   34 1   
    22    9   35 1   
    23   10   11 1   
    24   11   12 1   
    25   11   36 1   
    26   11   37 1   
    27   12   13 1   
    28   12   38 1   
    29   12   39 1   
    30   13   14 1   
    31   14   15 1   
    32   14   40 1   
    33   14   41 1   
    34   15   16 1   
    35   15   42 1   
    36   15   43 1   
    37   16   17 1   
    38   17   18 1   
    39   17   44 1   
    40   17   45 1   
    41   18   19 1   
    42   18   46 1   
    43   18   47 1   
    44   19   20 1   
    45   20   21 1   
    46   20   48 1   
    47   20   49 1   
    48   21   22 1   
    49   21   50 1   
    50   21   51 1   
    51   22   52 1   
@<TRIPOS>SUBSTRUCTURE
     1 P33         1 TEMP              0 ****  ****    0 ROOT
