@<TRIPOS>MOLECULE
molecule
   52    51     1     0     0
SMALL
bcc


@<TRIPOS>ATOM
      1 O22          0.0000     0.0000     0.0000 oh         1 P33      -0.598800
      2 C21          1.4280     0.0000     0.0000 c3         1 P33       0.142400
      3 C20          1.9380     0.0000     1.4420 c3         1 P33       0.128400
      4 O19          1.4630    -1.1670     2.1150 os         1 P33      -0.381600
      5 C18          1.9700    -1.1100     3.4500 c3         1 P33       0.126400
      6 C17          1.4960    -2.3380     4.2290 c3         1 P33       0.126900
      7 O16          1.9740    -3.5230     3.5900 os         1 P33      -0.383600
      8 C15          1.5000    -4.6280     4.3600 c3         1 P33       0.126400
      9 C14          1.9780    -5.9350     3.7260 c3         1 P33       0.126400
     10 O13          3.4070    -5.9530     3.6940 os         1 P33      -0.384600
     11 C12          3.7900    -7.1920     3.0940 c3         1 P33       0.126400
     12 C11          5.3160    -7.2770     3.0290 c3         1 P33       0.126400
     13 O10          5.8540    -7.2020     4.3510 os         1 P33      -0.384600
     14 C9           7.2740    -7.2850     4.2240 c3         1 P33       0.126400
     15 C8           7.9150    -7.2110     5.6110 c3         1 P33       0.126400
     16 O7           7.4440    -8.2950     6.4120 os         1 P33      -0.383600
     17 C6           8.0740    -8.1710     7.6880 c3         1 P33       0.126900
     18 C5           7.6110    -9.3080     8.6000 c3         1 P33       0.126400
     19 O4           7.9650   -10.5630     8.0140 os         1 P33      -0.381600
     20 C3           7.5070   -11.5800     8.9080 c3         1 P33       0.128400
     21 C2           7.8560   -12.9550     8.3370 c3         1 P33       0.142400
     22 O1           9.2720   -13.0610     8.1810 oh         1 P33      -0.598800
     23 H22         -0.3140     0.0920    -0.8840 ho         1 P33       0.398000
     24 H211         1.7890     0.8850    -0.5110 h1         1 P33       0.027700
     25 H212         1.7900    -0.8840    -0.5110 h1         1 P33       0.027700
     26 H201         3.0220     0.0010     1.4420 h1         1 P33       0.031700
     27 H202         1.5760     0.8840     1.9530 h1         1 P33       0.031700
     28 H181         1.6070    -0.2120     3.9360 h1         1 P33       0.032700
     29 H182         3.0530    -1.0950     3.4240 h1         1 P33       0.032700
     30 H171         1.8810    -2.2940     5.2410 h1         1 P33       0.033200
     31 H172         0.4130    -2.3530     4.2560 h1         1 P33       0.033200
     32 H151         0.4170    -4.6140     4.3840 h1         1 P33       0.032700
     33 H152         1.8840    -4.5550     5.3700 h1         1 P33       0.032700
     34 H141         1.6190    -6.7730     4.3110 h1         1 P33       0.033200
     35 H142         1.5940    -6.0080     2.7150 h1         1 P33       0.033200
     36 H121         3.3830    -7.2490     2.0910 h1         1 P33       0.033200
     37 H122         3.4080    -8.0140     3.6860 h1         1 P33       0.033200
     38 H111         5.6060    -8.2160     2.5740 h1         1 P33       0.033200
     39 H112         5.6980    -6.4550     2.4360 h1         1 P33       0.033200
     40 H91          7.6320    -6.4620     3.6170 h1         1 P33       0.033200
     41 H92          7.5400    -8.2240     3.7530 h1         1 P33       0.033200
     42 H81          8.9920    -7.2750     5.5140 h1         1 P33       0.032700
     43 H82          7.6500    -6.2720     6.0810 h1         1 P33       0.032700
     44 H61          7.8060    -7.2200     8.1320 h1         1 P33       0.033200
     45 H62          9.1490    -8.2220     7.5660 h1         1 P33       0.033200
     46 H51          8.0900    -9.2130     9.5670 h1         1 P33       0.032700
     47 H52          6.5360    -9.2570     8.7230 h1         1 P33       0.032700
     48 H31          6.4330   -11.5000     9.0260 h1         1 P33       0.031700
     49 H32          7.9860   -11.4560     9.8720 h1         1 P33       0.031700
     50 H21          7.5080   -13.7250     9.0150 h1         1 P33       0.027700
     51 H22A         7.3760   -13.0780     7.3740 h1         1 P33       0.027700
     52 HO1          9.4940   -13.9380     7.9160 ho         1 P33       0.398000
@<TRIPOS>BOND
     1     1     2 1
     2     1    23 1
     3     2     3 1
     4     2    24 1
     5     2    25 1
     6     3     4 1
     7     3    26 1
     8     3    27 1
     9     4     5 1
    10     5     6 1
    11     5    28 1
    12     5    29 1
    13     6     7 1
    14     6    30 1
    15     6    31 1
    16     7     8 1
    17     8     9 1
    18     8    32 1
    19     8    33 1
    20     9    10 1
    21     9    34 1
    22     9    35 1
    23    10    11 1
    24    11    12 1
    25    11    36 1
    26    11    37 1
    27    12    13 1
    28    12    38 1
    29    12    39 1
    30    13    14 1
    31    14    15 1
    32    14    40 1
    33    14    41 1
    34    15    16 1
    35    15    42 1
    36    15    43 1
    37    16    17 1
    38    17    18 1
    39    17    44 1
    40    17    45 1
    41    18    19 1
    42    18    46 1
    43    18    47 1
    44    19    20 1
    45    20    21 1
    46    20    48 1
    47    20    49 1
    48    21    22 1
    49    21    50 1
    50    21    51 1
    51    22    52 1
@<TRIPOS>SUBSTRUCTURE
     1 P33         1 TEMP              0 ****  ****    0 ROOT
