@<TRIPOS>MOLECULE
P34
   40    42     1     0     0
SMALL
bcc


@<TRIPOS>ATOM
      1 CAA        -0.3120   -0.3080    0.0460 c3        1 P34      0.083100
      2 N           1.1650   -0.1930    0.1420 n4        1 P34     -0.669400
      3 CAB         1.5970    0.0520    1.5450 c3        1 P34      0.083100
      4 CA          1.8360   -1.4050   -0.4220 c3        1 P34      0.007800
      5 C           3.2850   -1.0810   -0.8730 c         1 P34      0.645100
      6 O           3.6400    0.1170   -0.8850 o         1 P34     -0.607100
      7 NAM         4.0360   -2.1500   -1.2520 n         1 P34     -0.412100
      8 CAP         5.3960   -2.1080   -1.6570 ca        1 P34     -0.035400
      9 CAK         6.0070   -0.9430   -2.1420 ca        1 P34     -0.074000
     10 CAU         7.3460   -0.9420   -2.5510 ca        1 P34     -0.072000
     11 CAT         7.9970    0.2620   -3.0500 ca        1 P34      0.010000
     12 CAI         7.3380    1.4990   -3.1430 ca        1 P34     -0.138000
     13 CAF         8.0000    2.6220   -3.6300 ca        1 P34     -0.094000
     14 CAE         9.3340    2.5410   -4.0350 ca        1 P34     -0.131000
     15 CAH        10.0070    1.3270   -3.9500 ca        1 P34     -0.061000
     16 CAS         9.3450    0.1930   -3.4600 ca        1 P34     -0.140600
     17 CAQ        10.0970   -1.0750   -3.3820 c         1 P34      0.712100
     18 OAD        11.2840   -1.2130   -3.7230 o         1 P34     -0.599500
     19 NAN         9.4190   -2.1960   -2.8850 n         1 P34     -0.450100
     20 CAR         8.0950   -2.1520   -2.4830 ca        1 P34      0.110600
     21 CAJ         7.4640   -3.3260   -1.9920 ca        1 P34     -0.163000
     22 CAG         6.1470   -3.3070   -1.5850 ca        1 P34     -0.105000
     23 HAA1       -0.6580   -1.2140    0.6100 hx        1 P34      0.108533
     24 HAA2       -0.7800    0.6120    0.4900 hx        1 P34      0.108533
     25 HAA3       -0.6130   -0.3950   -1.0330 hx        1 P34      0.108533
     26 HAB1        1.1220    1.0010    1.9150 hx        1 P34      0.108533
     27 HAB2        1.2820   -0.8050    2.1970 hx        1 P34      0.108533
     28 HAB3        2.7170    0.1620    1.5610 hx        1 P34      0.108533
     29 HA1         1.8320   -2.2150    0.3600 hx        1 P34      0.120200
     30 HA2         1.2520   -1.7540   -1.3220 hx        1 P34      0.120200
     31 HAM         3.6410   -3.0630   -1.1820 hn        1 P34      0.331500
     32 HAK         5.4280   -0.0060   -2.1980 ha        1 P34      0.166000
     33 HAI         6.2890    1.6010   -2.8300 ha        1 P34      0.134000
     34 HAF         7.4660    3.5830   -3.6950 ha        1 P34      0.142000
     35 HAE         9.8510    3.4330   -4.4200 ha        1 P34      0.151000
     36 HAH        11.0610    1.2380   -4.2630 ha        1 P34      0.170000
     37 HAN         9.9150   -3.0590   -2.8260 hn        1 P34      0.341500
     38 HAJ         8.0310   -4.2700   -1.9320 ha        1 P34      0.155000
     39 HAG         5.6910   -4.2370   -1.2100 ha        1 P34      0.139000
     40 H           1.4830    0.6190   -0.4230 hn        1 P34      0.479800
@<TRIPOS>BOND
     1    1    2 1
     2    1   23 1
     3    1   24 1
     4    1   25 1
     5    2    3 1
     6    2    4 1
     7    2   40 1
     8    3   26 1
     9    3   27 1
    10    3   28 1
    11    4    5 1
    12    4   29 1
    13    4   30 1
    14    5    6 2
    15    5    7 1
    16    7    8 1
    17    7   31 1
    18    8    9 ar
    19    8   22 ar
    20    9   10 ar
    21    9   32 1
    22   10   11 1
    23   10   20 ar
    24   11   12 ar
    25   11   16 ar
    26   12   13 ar
    27   12   33 1
    28   13   14 ar
    29   13   34 1
    30   14   15 ar
    31   14   35 1
    32   15   16 ar
    33   15   36 1
    34   16   17 1
    35   17   18 2
    36   17   19 1
    37   19   20 1
    38   19   37 1
    39   20   21 ar
    40   21   22 ar
    41   21   38 1
    42   22   39 1
@<TRIPOS>SUBSTRUCTURE
     1 P34         1 TEMP              0 ****  ****    0 ROOT
