@<TRIPOS>MOLECULE
molecule
   50    53     1     0     0
SMALL
bcc


@<TRIPOS>ATOM
      1 C26          0.0000     0.0000     0.0000 ca         1 P35       0.007000
      2 C21          5.9130     3.8770    -1.1850 ca         1 P35      -0.061000
      3 C10          3.6880     3.7150    -2.0580 ca         1 P35      -0.055300
      4 C11          3.7410     5.0440    -2.4380 ca         1 P35      -0.190000
      5 C12          4.8880     5.7900    -2.2010 ca         1 P35       0.210600
      6 C14          6.1530     7.9170    -2.3310 c3         1 P35       0.240500
      7 C15          5.7910     9.4020    -2.2430 c3         1 P35      -0.094400
      8 C19          7.1460     7.7080    -3.4780 c3         1 P35      -0.094400
      9 C20          5.9750     5.2020    -1.5660 ca         1 P35      -0.209000
     10 C18          8.3830     8.5780    -3.2390 c3         1 P35       0.159800
     11 O01         -0.6850    -0.0060     3.5740 oh         1 P35      -0.523100
     12 C02         -0.0030    -0.0060     2.3990 ca         1 P35       0.186100
     13 C03          1.3840    -0.0110     2.4010 ca         1 P35      -0.248000
     14 C04          2.0760     0.0000     1.2000 ca         1 P35       0.232100
     15 O05          3.4360    -0.0060     1.1990 oh         1 P35      -0.509100
     16 C06          1.3810     0.0000     0.0000 ca         1 P35      -0.346500
     17 S07          2.2610    -0.0010    -1.5270 sy         1 P35       1.462200
     18 N08          3.0850     1.4320    -1.6190 n3         1 P35      -0.822500
     19 C09          2.5950     2.6860    -2.2000 c3         1 P35       0.292100
     20 C16          7.0680    10.2220    -2.0400 c3         1 P35       0.159800
     21 N17          7.9840     9.9890    -3.1640 n7         1 P35      -0.819200
     22 C22          4.7730     3.1320    -1.4320 ca         1 P35      -0.159300
     23 C23          4.4440     1.6900    -1.1330 c3         1 P35       0.298100
     24 O24          3.2430    -1.0230    -1.4240 o          1 P35      -0.630800
     25 O25          1.2810     0.0330    -2.5550 o          1 P35      -0.630800
     26 C27         -0.6930     0.0000     1.1950 ca         1 P35      -0.201000
     27 H261        -0.5410     0.0020    -0.9390 ha         1 P35       0.164000
     28 H211         6.7610     3.4180    -0.6900 ha         1 P35       0.129000
     29 H111         2.8920     5.4990    -2.9330 ha         1 P35       0.130000
     30 H141         6.6080     7.6010    -1.3990 h1         1 P35       0.056700
     31 H151         5.1230     9.5610    -1.4050 hc         1 P35       0.056700
     32 H152         5.3070     9.7100    -3.1620 hc         1 P35       0.056700
     33 H192         7.4400     6.6660    -3.5160 hc         1 P35       0.056700
     34 H191         6.6810     7.9930    -4.4140 hc         1 P35       0.056700
     35 H201         6.8710     5.7800    -1.3780 ha         1 P35       0.135000
     36 H181         9.0800     8.4440    -4.0580 h1         1 P35       0.033450
     37 H182         8.8530     8.2870    -2.3080 h1         1 P35       0.033450
     38 H011        -0.8560    -0.8950     3.8390 ho         1 P35       0.430000
     39 H031         1.9240     0.0510     3.3380 ha         1 P35       0.151000
     40 H051         3.7480    -0.6310     1.8320 ho         1 P35       0.441000
     41 H091         2.3650     2.5380    -3.2480 h1         1 P35       0.054700
     42 H092         1.7110     3.0150    -1.6680 h1         1 P35       0.054700
     43 H131         4.1500     7.5610    -3.0180 hn         1 P35       0.439800
     44 H161         7.5470     9.9190    -1.1170 h1         1 P35       0.033450
     45 H162         6.8160    11.2740    -1.9940 h1         1 P35       0.033450
     46 H171         8.7990    10.5610    -3.0540 hn         1 P35       0.355800
     47 H231         5.1450     1.0420    -1.6450 h1         1 P35       0.058700
     48 H232         4.4900     1.5190    -0.0640 h1         1 P35       0.058700
     49 H271        -1.7770     0.0000     1.1930 ha         1 P35       0.149000
     50 N13          4.9430     7.1320    -2.5830 nu         1 P35      -0.821600
@<TRIPOS>BOND
     1    10    21 1
     2    10     8 1
     3    21    20 1
     4     8     6 1
     5    20     7 1
     6     6     7 1
     7     6    50 1
     8    50     5 1
     9    15    14 1
    10     5     4 ar
    11     5     9 ar
    12     4     3 ar
    13     9     2 ar
    14     3    19 1
    15     3    22 ar
    16    19    18 1
    17     2    22 ar
    18    14    13 ar
    19    14    16 ar
    20    22    23 1
    21    13    12 ar
    22    18    23 1
    23    18    17 1
    24    25    17 2
    25    17    16 1
    26    17    24 2
    27    16     1 ar
    28    12    11 1
    29    12    26 ar
    30     1    26 ar
    31     1    27 1
    32     2    28 1
    33     4    29 1
    34     6    30 1
    35     7    31 1
    36     7    32 1
    37     8    33 1
    38     8    34 1
    39     9    35 1
    40    10    36 1
    41    10    37 1
    42    11    38 1
    43    13    39 1
    44    15    40 1
    45    19    41 1
    46    19    42 1
    47    50    43 1
    48    20    44 1
    49    20    45 1
    50    21    46 1
    51    23    47 1
    52    23    48 1
    53    26    49 1
@<TRIPOS>SUBSTRUCTURE
     1 P35         1 TEMP              0 ****  ****    0 ROOT
