@<TRIPOS>MOLECULE
P36
   39    41     1     0     0
SMALL
bcc


@<TRIPOS>ATOM
      1 C1           0.0000     0.0000     0.0000 ca         1 P36      -0.102500
      2 C2           1.3830     0.0000     0.0000 ca         1 P36      -0.088000
      3 C3           2.0740     0.0000     1.1970 ca         1 P36      -0.102500
      4 C4           1.3830    -0.0010     2.3940 ca         1 P36      -0.079500
      5 C5           0.0000    -0.0010     2.3950 ca         1 P36      -0.137300
      6 C6          -0.6910     0.0050     1.1970 ca         1 P36      -0.079500
      7 C7          -0.7530    -0.0020     3.7000 c3         1 P36       0.071300
      8 N8          -0.9970     1.3790     4.1230 n          1 P36       0.123000
      9 C9          -2.1220     2.0030     3.7300 c          1 P36       0.606700
     10 C10         -2.3700     3.3240     4.1260 cc         1 P36      -0.172500
     11 C11         -1.4450     3.9700     4.9240 cd         1 P36       0.221100
     12 C12         -0.2800     3.2810     5.3150 cd         1 P36      -0.251000
     13 C13         -0.0860     2.0080     4.9130 cc         1 P36      -0.106400
     14 O14         -2.9290     1.4180     3.0240 o          1 P36      -0.693500
     15 O15         -1.6550     5.2480     5.3240 os         1 P36      -0.313900
     16 C16         -1.8470     5.4670     6.7230 c3         1 P36       0.278700
     17 C17         -2.1890     6.9150     6.9630 ca         1 P36      -0.114300
     18 C18         -3.5090     7.3240     6.9540 ca         1 P36      -0.073500
     19 C19         -3.8230     8.6520     7.1730 ca         1 P36      -0.105500
     20 C20         -2.8160     9.5710     7.4030 ca         1 P36      -0.090000
     21 C21         -1.4950     9.1610     7.4130 ca         1 P36      -0.105500
     22 C22         -1.1820     7.8320     7.1990 ca         1 P36      -0.073500
     23 Br23        -3.9480     4.2090     3.5760 br         1 P36      -0.033700
     24 H1          -0.5420     0.0030    -0.9380 ha         1 P36       0.105500
     25 H2           1.9250    -0.0020    -0.9380 ha         1 P36       0.103000
     26 H3           3.1580     0.0000     1.1970 ha         1 P36       0.105500
     27 H4           1.9250    -0.0030     3.3320 ha         1 P36       0.115000
     28 H6          -1.7750     0.0050     1.1970 ha         1 P36       0.115000
     29 H7          -1.6990    -0.5130     3.5700 h1         1 P36       0.047200
     30 H7A         -0.1670    -0.5130     4.4550 h1         1 P36       0.047200
     31 H12          0.4550     3.7700     5.9430 ha         1 P36       0.133000
     32 H13          0.8110     1.4820     5.2170 h4         1 P36       0.128000
     33 H16         -0.9370     5.2170     7.2560 h1         1 P36      -0.000800
     34 H16A        -2.6560     4.8410     7.0790 h1         1 P36      -0.000800
     35 H18         -4.2980     6.6040     6.7740 ha         1 P36       0.106500
     36 H19         -4.8570     8.9730     7.1650 ha         1 P36       0.103500
     37 H20         -3.0610    10.6130     7.5730 ha         1 P36       0.102000
     38 H21         -0.7060     9.8810     7.5960 ha         1 P36       0.103500
     39 H22         -0.1470     7.5110     7.2070 ha         1 P36       0.106500
@<TRIPOS>BOND
     1     1     2 ar  
     2     1     6 ar  
     3     1    24 1   
     4     2     3 ar  
     5     2    25 1   
     6     3     4 ar  
     7     3    26 1   
     8     4     5 ar  
     9     4    27 1   
    10     5     6 ar  
    11     5     7 1   
    12     6    28 1   
    13     7     8 1   
    14     7    29 1   
    15     7    30 1   
    16     8     9 1   
    17     8    13 1   
    18     9    10 1   
    19     9    14 2   
    20    10    11 2   
    21    10    23 1   
    22    11    12 1   
    23    11    15 1   
    24    12    13 2   
    25    12    31 1   
    26    13    32 1   
    27    15    16 1   
    28    16    17 1   
    29    16    33 1   
    30    16    34 1   
    31    17    18 ar  
    32    17    22 ar  
    33    18    19 ar  
    34    18    35 1   
    35    19    20 ar  
    36    19    36 1   
    37    20    21 ar  
    38    20    37 1   
    39    21    22 ar  
    40    21    38 1   
    41    22    39 1   
@<TRIPOS>SUBSTRUCTURE
     1 P36         1 TEMP              0 ****  ****    0 ROOT
