@<TRIPOS>MOLECULE
molecule
   54    58     1     0     0
SMALL
bcc


@<TRIPOS>ATOM
      1 N1           0.0000     0.0000     0.0000 ns         1 P37      -0.551900
      2 N3          -5.1290     3.7970     0.8820 nc         1 P37      -0.477800
      3 C4           2.1040     0.0000     1.4600 cx         1 P37      -0.158400
      4 C5          -2.2730     0.0350    -0.9090 ca         1 P37      -0.112600
      5 C6          -3.8000     6.8400     0.4810 ca         1 P37       0.183900
      6 C7          -3.7040     8.1710     0.8440 ca         1 P37      -0.214000
      7 C8          -4.8510     8.9040     1.0990 ca         1 P37       0.177900
      8 C10         -6.1960     6.9770     0.6300 ca         1 P37      -0.064000
      9 C13         -5.3480     3.0270    -1.1690 cd         1 P37      -0.360100
     10 C15         -5.4970     4.3130    -3.6170 c          1 P37       0.721700
     11 C17         -5.4950     2.2410    -2.3960 cd         1 P37       0.290800
     12 C20         -3.3290     0.7720    -1.4430 ca         1 P37      -0.125000
     13 C21         -2.4020    -1.3460    -0.7500 ca         1 P37      -0.148000
     14 C22         -3.5700    -1.9770    -1.1230 ca         1 P37      -0.098000
     15 C3           2.5610     0.0000     0.0000 cx         1 P37      -0.158400
     16 C2           1.2430     0.6720     0.3890 cx         1 P37       0.061700
     17 C1          -1.0190     0.7150    -0.5160 c          1 P37       0.677700
     18 O1          -0.9080     1.9160    -0.6590 o          1 P37      -0.599100
     19 C23         -4.6180    -1.2470    -1.6540 ca         1 P37      -0.127300
     20 C19         -4.5000     0.1290    -1.8140 ca         1 P37       0.175600
     21 N5          -5.5620     0.8620    -2.3510 nu         1 P37      -0.690400
     22 C16         -5.5670     2.9170    -3.6010 cc         1 P37      -0.313200
     23 N4          -5.3610     5.0250    -2.4870 n          1 P37      -0.321000
     24 C18         -5.2950     6.4870    -2.5660 c3         1 P37       0.066300
     25 C12         -5.2850     4.4170    -1.2610 cc         1 P37       0.122300
     26 C14         -5.2450     2.6920     0.1980 cd         1 P37       0.395200
     27 N2          -5.1490     4.8880     0.0060 na         1 P37       0.121300
     28 C11         -5.0490     6.2380     0.3740 ca         1 P37      -0.045200
     29 C9          -6.0950     8.3060     0.9930 ca         1 P37      -0.186000
     30 F1          -2.6810     6.1260     0.2270 f          1 P37      -0.106900
     31 HN1         -0.1010    -0.9850     0.1420 hn         1 P37       0.317500
     32 H4           2.6400     0.6730     2.1180 hc         1 P37       0.077450
     33 H4A          1.7310    -0.9460     1.8340 hc         1 P37       0.077450
     34 H7          -2.7320     8.6410     0.9280 ha         1 P37       0.171000
     35 H10         -7.1710     6.5100     0.5470 ha         1 P37       0.160000
     36 H20         -3.2360     1.8440    -1.5690 ha         1 P37       0.174000
     37 H21         -1.5830    -1.9220    -0.3350 ha         1 P37       0.124000
     38 H22         -3.6680    -3.0490    -0.9990 ha         1 P37       0.135000
     39 H24         -6.0560    -1.8090    -3.1190 hc         1 P37       0.044367
     40 H24A        -6.7230    -1.5240    -1.5060 hc         1 P37       0.044367
     41 H24B        -5.8090    -3.0020    -1.8370 hc         1 P37       0.044367
     42 H3           3.3780     0.6730    -0.2340 hc         1 P37       0.077450
     43 H3A          2.4680    -0.9460    -0.5190 hc         1 P37       0.077450
     44 H2           1.2710     1.7550     0.3980 h1         1 P37       0.125700
     45 H16         -5.7810     2.3750    -4.5140 ha         1 P37       0.171000
     46 H18         -6.1090     6.9170    -1.9950 h1         1 P37       0.060700
     47 H18A        -4.3500     6.8280    -2.1600 h1         1 P37       0.060700
     48 H18B        -5.3760     6.7970    -3.6010 h1         1 P37       0.060700
     49 H14         -5.2600     1.6890     0.6080 h4         1 P37       0.064100
     50 H9          -6.9910     8.8810     1.1930 ha         1 P37       0.159000
     51 H211        -6.3530     0.3870    -2.7390 hn         1 P37       0.458800
     52 C24         -5.8910    -1.9440    -2.0570 c3         1 P37      -0.048800
     53 O2          -5.5610     4.8990    -4.6860 o          1 P37      -0.649500
     54 F2          -4.7550    10.2040     1.4540 f          1 P37      -0.125900
@<TRIPOS>BOND
     1     1    16 1
     2     1    17 1
     3     1    31 1
     4     2    26 2
     5     2    27 1
     6     3    15 1
     7     3    16 1
     8     3    32 1
     9     3    33 1
    10     4    12 ar
    11     4    13 ar
    12     4    17 1
    13     5     6 ar
    14     5    28 ar
    15     5    30 1
    16     6     7 ar
    17     6    34 1
    18     7    29 ar
    19     7    54 1
    20     8    28 ar
    21     8    29 ar
    22     8    35 1
    23     9    11 1
    24     9    25 2
    25     9    26 1
    26    10    22 1
    27    10    53 2
    28    10    23 1
    29    11    21 1
    30    11    22 2
    31    12    20 ar
    32    12    36 1
    33    13    14 ar
    34    13    37 1
    35    14    19 ar
    36    14    38 1
    37    52    19 1
    38    52    39 1
    39    52    40 1
    40    52    41 1
    41    15    16 1
    42    15    42 1
    43    15    43 1
    44    16    44 1
    45    17    18 2
    46    19    20 ar
    47    20    21 1
    48    22    45 1
    49    23    24 1
    50    23    25 1
    51    24    46 1
    52    24    47 1
    53    24    48 1
    54    25    27 1
    55    26    49 1
    56    27    28 1
    57    29    50 1
    58    21    51 1
@<TRIPOS>SUBSTRUCTURE
     1 P37         1 TEMP              0 ****  ****    0 ROOT
