@<TRIPOS>MOLECULE
P38
   76    81     1     0     0
SMALL
bcc


@<TRIPOS>ATOM
      1 C18          0.0000     0.0000     0.0000 ca         1 P38      -0.102500
      2 C17          1.3800     0.0000     0.0000 ca         1 P38      -0.082500
      3 C16          2.0740     0.0000     1.2090 ca         1 P38      -0.052800
      4 C15          4.2270    -0.0040     0.0640 c2         1 P38      -0.182000
      5 C19         -0.6940     0.0020     1.1970 ca         1 P38      -0.096000
      6 C20         -0.0110    -0.0020     2.3990 ca         1 P38      -0.102500
      7 C21          1.3690     0.0020     2.4120 ca         1 P38      -0.082500
      8 C23          5.9660     4.0760     9.3430 ca         1 P38      -0.011400
      9 C24          5.1210     4.9380    10.0330 ca         1 P38      -0.126300
     10 C11          4.0790     1.0120     3.3010 c          1 P38       0.625300
     11 C34         10.7990     3.9620    14.7180 ca         1 P38      -0.176300
     12 C27          7.6650     4.4230    11.0050 ca         1 P38      -0.080400
     13 C33         10.5480     3.9860    13.3440 ca         1 P38      -0.104600
     14 N1           6.3390     0.5260     6.1180 na         1 P38       0.791200
     15 N2           7.3200    -0.0220     6.9580 nc         1 P38      -0.761800
     16 C3           7.6340     0.5760     8.0730 cd         1 P38       0.752900
     17 N4           7.0530     1.7100     8.4630 nd         1 P38      -0.807000
     18 C5           6.1190     2.2960     7.7340 cc         1 P38       0.627200
     19 C6           5.7300     1.7060     6.5040 cc         1 P38      -0.504600
     20 C7           4.8130     2.0540     5.5380 cd         1 P38      -0.018200
     21 C8           4.8800     1.0620     4.5380 cd         1 P38      -0.232200
     22 C9           5.8270     0.1350     4.9410 cc         1 P38      -0.280100
     23 O12          3.2640     1.8860     3.0680 o          1 P38      -0.642100
     24 N13          4.2490    -0.0000     2.4280 ns         1 P38      -0.070100
     25 C14          3.5560    -0.0010     1.2150 ce         1 P38      -0.043600
     26 N22          5.5330     3.4690     8.1610 nu         1 P38      -0.245300
     27 C25          5.5480     5.5380    11.2020 ca         1 P38      -0.065000
     28 C26          6.8160     5.2840    11.6890 ca         1 P38      -0.106000
     29 C28          7.2410     3.8240     9.8270 ca         1 P38      -0.147000
     30 C29          3.7370     5.2180     9.5050 c3         1 P38       0.061200
     31 N30          8.9500     4.1710    11.4970 ns         1 P38      -0.023100
     32 C31          9.1710     4.1520    12.8250 c          1 P38       0.580700
     33 O32          8.2410     4.2690    13.5980 o          1 P38      -0.630100
     34 C35         12.1090     3.8120    15.1600 ca         1 P38       0.482200
     35 N36         13.1040     3.6930    14.2970 nb         1 P38      -0.610000
     36 C37         12.9040     3.7100    12.9930 ca         1 P38       0.430200
     37 C38         11.6350     3.8500    12.4710 ca         1 P38      -0.243300
     38 N39         12.3750     3.7870    16.5250 nh         1 P38      -0.464300
     39 C40         13.8130     3.6200    16.7770 c3         1 P38       0.099800
     40 C41         14.0690     3.6580    18.2870 c3         1 P38       0.212400
     41 O42         13.2850     2.6430    18.9220 os         1 P38      -0.410600
     42 C43         11.8800     2.7750    18.6970 c3         1 P38       0.212400
     43 C44         11.6030     2.7290    17.1920 c3         1 P38       0.099800
     44 H18         -0.5410     0.0020    -0.9390 ha         1 P38       0.101500
     45 H17          1.9220    -0.0020    -0.9380 ha         1 P38       0.111000
     46 H15          3.6890    -0.0040    -0.8770 ha         1 P38       0.098500
     47 H15A         5.3100    -0.0040     0.0680 ha         1 P38       0.098500
     48 H19         -1.7780     0.0010     1.1920 ha         1 P38       0.100000
     49 H20         -0.5600     0.0000     3.3330 ha         1 P38       0.101500
     50 H21          1.9040     0.0010     3.3540 ha         1 P38       0.111000
     51 H3           8.3950     0.1350     8.7060 h5         1 P38       0.004100
     52 H9           6.1090    -0.7580     4.3960 h4         1 P38       0.154000
     53 HN13         4.8680    -0.7540     2.6510 hn         1 P38       0.171500
     54 HN22         4.8260     3.9070     7.6040 hn         1 P38       0.310800
     55 H25          4.8880     6.2100    11.7370 ha         1 P38       0.110000
     56 H26          7.1470     5.7540    12.6070 ha         1 P38       0.141000
     57 H28          7.9020     3.1530     9.2920 ha         1 P38       0.167000
     58 H29          3.2060     4.2840     9.3710 hc         1 P38       0.009367
     59 H29A         3.2010     5.8410    10.2110 hc         1 P38       0.009367
     60 H29B         3.8110     5.7320     8.5540 hc         1 P38       0.009367
     61 HN30         9.7090     4.0280    10.8610 hn         1 P38       0.173500
     62 H37         13.7480     3.6060    12.3220 h4         1 P38      -0.018900
     63 H38         11.4810     3.8630    11.3980 ha         1 P38       0.112000
     64 H40         14.1410     2.6670    16.3800 h1         1 P38       0.031200
     65 H40A        14.3590     4.4240    16.2990 h1         1 P38       0.031200
     66 H41         15.1190     3.4760    18.4790 h1         1 P38       0.014700
     67 H41A        13.7860     4.6280    18.6760 h1         1 P38       0.014700
     68 H43         11.3590     1.9610    19.1840 h1         1 P38       0.014700
     69 H43A        11.5380     3.7220    19.0970 h1         1 P38       0.014700
     70 H44         10.5460     2.8880    17.0150 h1         1 P38       0.031200
     71 H44A        11.8990     1.7640    16.8000 h1         1 P38       0.031200
     72 C10          3.9110     3.2600     5.5490 c3         1 P38       0.046100
     73 H34          9.9870     4.0600    15.4270 ha         1 P38       0.146000
     74 H10          4.5040     4.1540     5.6990 hc         1 P38       0.025367
     75 H10A         3.3890     3.3290     4.6020 hc         1 P38       0.025367
     76 H10B         3.1900     3.1660     6.3520 hc         1 P38       0.025367
@<TRIPOS>BOND
     1     1     2 ar  
     2     1     5 ar  
     3     1    44 1   
     4     2     3 ar  
     5     2    45 1   
     6     3     7 ar  
     7     3    25 1   
     8     4    25 2   
     9     4    46 1   
    10     4    47 1   
    11     5     6 ar  
    12     5    48 1   
    13     6     7 ar  
    14     6    49 1   
    15     7    50 1   
    16     8     9 ar  
    17     8    26 1   
    18     8    29 ar  
    19     9    27 ar  
    20     9    30 1   
    21    10    21 1   
    22    10    23 2   
    23    10    24 1   
    24    11    13 ar  
    25    11    34 ar  
    26    11    73 1   
    27    12    28 ar  
    28    12    29 ar  
    29    12    31 1   
    30    13    32 1   
    31    13    37 ar  
    32    14    15 1   
    33    14    19 1   
    34    14    22 1   
    35    15    16 2   
    36    16    17 1   
    37    16    51 1   
    38    17    18 2   
    39    18    19 1   
    40    18    26 1   
    41    19    20 2   
    42    20    21 1   
    43    20    72 1   
    44    21    22 2   
    45    22    52 1   
    46    24    25 1   
    47    24    53 1   
    48    26    54 1   
    49    27    28 ar  
    50    27    55 1   
    51    28    56 1   
    52    29    57 1   
    53    30    58 1   
    54    30    59 1   
    55    30    60 1   
    56    31    32 1   
    57    31    61 1   
    58    32    33 2   
    59    34    35 ar  
    60    34    38 1   
    61    35    36 ar  
    62    36    37 ar  
    63    36    62 1   
    64    37    63 1   
    65    38    39 1   
    66    38    43 1   
    67    39    40 1   
    68    39    64 1   
    69    39    65 1   
    70    40    41 1   
    71    40    66 1   
    72    40    67 1   
    73    41    42 1   
    74    42    43 1   
    75    42    68 1   
    76    42    69 1   
    77    43    70 1   
    78    43    71 1   
    79    72    74 1   
    80    72    75 1   
    81    72    76 1   
@<TRIPOS>SUBSTRUCTURE
     1 P38         1 TEMP              0 ****  ****    0 ROOT
