@<TRIPOS>MOLECULE
molecule
   76    81     1     0     0
SMALL
bcc


@<TRIPOS>ATOM
      1 C18          0.0000     0.0000     0.0000 ca         1 P38      -0.131500
      2 C17          1.3800     0.0000     0.0000 ca         1 P38      -0.101500
      3 C16          2.0740     0.0000     1.2090 ca         1 P38      -0.058800
      4 C15          4.2270    -0.0040     0.0640 c2         1 P38      -0.237000
      5 C19         -0.6940     0.0020     1.1970 ca         1 P38      -0.122000
      6 C20         -0.0110    -0.0020     2.3990 ca         1 P38      -0.131500
      7 C21          1.3690     0.0020     2.4120 ca         1 P38      -0.101500
      8 C23          5.9660     4.0760     9.3430 ca         1 P38       0.153600
      9 C24          5.1210     4.9380    10.0330 ca         1 P38      -0.129300
     10 C11          4.0790     1.0120     3.3010 c          1 P38       0.706300
     11 C34         10.7990     3.9620    14.7180 ca         1 P38      -0.206300
     12 C27          7.6650     4.4230    11.0050 ca         1 P38       0.063600
     13 C33         10.5480     3.9860    13.3440 ca         1 P38      -0.092600
     14 N1           6.3390     0.5260     6.1180 na         1 P38       0.249200
     15 N2           7.3200    -0.0220     6.9580 nc         1 P38      -0.588800
     16 C3           7.6340     0.5760     8.0730 cd         1 P38       0.701900
     17 N4           7.0530     1.7100     8.4630 nd         1 P38      -0.865000
     18 C5           6.1190     2.2960     7.7340 cc         1 P38       0.799200
     19 C6           5.7300     1.7060     6.5040 cc         1 P38      -0.303600
     20 C7           4.8130     2.0540     5.5380 cd         1 P38      -0.030200
     21 C8           4.8800     1.0620     4.5380 cd         1 P38      -0.230200
     22 C9           5.8270     0.1350     4.9410 cc         1 P38      -0.075100
     23 O12          3.2640     1.8860     3.0680 o          1 P38      -0.595100
     24 N13          4.2490    -0.0000     2.4280 ns         1 P38      -0.501100
     25 C14          3.5560    -0.0010     1.2150 ce         1 P38       0.086400
     26 N22          5.5330     3.4690     8.1610 nu         1 P38      -0.730300
     27 C25          5.5480     5.5380    11.2020 ca         1 P38      -0.094000
     28 C26          6.8160     5.2840    11.6890 ca         1 P38      -0.138000
     29 C28          7.2410     3.8240     9.8270 ca         1 P38      -0.163000
     30 C29          3.7370     5.2180     9.5050 c3         1 P38      -0.048800
     31 N30          8.9500     4.1710    11.4970 ns         1 P38      -0.467100
     32 C31          9.1710     4.1520    12.8250 c          1 P38       0.673700
     33 O32          8.2410     4.2690    13.5980 o          1 P38      -0.585100
     34 C35         12.1090     3.8120    15.1600 ca         1 P38       0.612200
     35 N36         13.1040     3.6930    14.2970 nb         1 P38      -0.726000
     36 C37         12.9040     3.7100    12.9930 ca         1 P38       0.445200
     37 C38         11.6350     3.8500    12.4710 ca         1 P38      -0.268300
     38 N39         12.3750     3.7870    16.5250 nh         1 P38      -0.696300
     39 C40         13.8130     3.6200    16.7770 c3         1 P38       0.131300
     40 C41         14.0690     3.6580    18.2870 c3         1 P38       0.135900
     41 O42         13.2850     2.6430    18.9220 os         1 P38      -0.423600
     42 C43         11.8800     2.7750    18.6970 c3         1 P38       0.135900
     43 C44         11.6030     2.7290    17.1920 c3         1 P38       0.131300
     44 H18         -0.5410     0.0020    -0.9390 ha         1 P38       0.129500
     45 H17          1.9220    -0.0020    -0.9380 ha         1 P38       0.133500
     46 H15          5.3100    -0.0040     0.0680 ha         1 P38       0.126500
     47 H15A         3.6890    -0.0050    -0.8770 ha         1 P38       0.126500
     48 H19         -1.7780     0.0010     1.1920 ha         1 P38       0.127000
     49 H20         -0.5600     0.0000     3.3330 ha         1 P38       0.129500
     50 H21          1.9040     0.0010     3.3540 ha         1 P38       0.133500
     51 H3           8.3950     0.1350     8.7060 h5         1 P38       0.075100
     52 H9           6.1090    -0.7580     4.3960 h4         1 P38       0.180000
     53 HN13         4.8680    -0.7540     2.6510 hn         1 P38       0.322500
     54 HN22         4.8260     3.9070     7.6040 hn         1 P38       0.472800
     55 H25          4.8880     6.2100    11.7370 ha         1 P38       0.139000
     56 H26          7.1470     5.7540    12.6070 ha         1 P38       0.162000
     57 H28          7.9020     3.1530     9.2920 ha         1 P38       0.182000
     58 H29          3.2060     4.2840     9.3710 hc         1 P38       0.043367
     59 H29A         3.8110     5.7320     8.5540 hc         1 P38       0.043367
     60 H29B         3.2010     5.8410    10.2110 hc         1 P38       0.043367
     61 HN30         9.7090     4.0280    10.8610 hn         1 P38       0.327500
     62 H37         13.7480     3.6060    12.3220 h4         1 P38       0.026100
     63 H38         11.4810     3.8630    11.3980 ha         1 P38       0.132000
     64 H40         14.1410     2.6670    16.3800 h1         1 P38       0.059200
     65 H40A        14.3590     4.4240    16.2990 h1         1 P38       0.059200
     66 H41         13.7860     4.6280    18.6760 h1         1 P38       0.056700
     67 H41A        15.1190     3.4760    18.4790 h1         1 P38       0.056700
     68 H43         11.5380     3.7220    19.0970 h1         1 P38       0.056700
     69 H43A        11.3590     1.9610    19.1840 h1         1 P38       0.056700
     70 H44         10.5460     2.8880    17.0150 h1         1 P38       0.059200
     71 H44A        11.8990     1.7640    16.8000 h1         1 P38       0.059200
     72 C10          3.9110     3.2600     5.5490 c3         1 P38      -0.051900
     73 H34          9.9870     4.0600    15.4270 ha         1 P38       0.170000
     74 H10          3.3890     3.3290     4.6020 hc         1 P38       0.059367
     75 H10A         4.5040     4.1540     5.6990 hc         1 P38       0.059367
     76 H10B         3.1900     3.1660     6.3520 hc         1 P38       0.059367
@<TRIPOS>BOND
     1     2     1 ar
     2     1     5 ar
     3     1    44 1
     4     3     2 ar
     5     2    45 1
     6    25     3 1
     7     3     7 ar
     8    25     4 2
     9     4    46 1
    10     4    47 1
    11     6     5 ar
    12     5    48 1
    13     7     6 ar
    14     6    49 1
    15     7    50 1
    16    29     8 ar
    17     9     8 ar
    18     8    26 1
    19    27     9 ar
    20     9    30 1
    21    21    10 1
    22    23    10 2
    23    10    24 1
    24    34    11 ar
    25    11    13 ar
    26    11    73 1
    27    31    12 1
    28    28    12 ar
    29    12    29 ar
    30    37    13 ar
    31    13    32 1
    32    19    14 1
    33    15    14 1
    34    14    22 1
    35    16    15 2
    36    17    16 1
    37    16    51 1
    38    17    18 2
    39    26    18 1
    40    18    19 1
    41    19    20 2
    42    72    20 1
    43    20    21 1
    44    21    22 2
    45    22    52 1
    46    72    74 1
    47    72    75 1
    48    72    76 1
    49    24    25 1
    50    24    53 1
    51    26    54 1
    52    28    27 ar
    53    27    55 1
    54    28    56 1
    55    29    57 1
    56    30    58 1
    57    30    59 1
    58    30    60 1
    59    32    31 1
    60    31    61 1
    61    32    33 2
    62    35    34 ar
    63    38    34 1
    64    35    36 ar
    65    36    37 ar
    66    36    62 1
    67    37    63 1
    68    43    38 1
    69    38    39 1
    70    40    39 1
    71    39    64 1
    72    39    65 1
    73    41    40 1
    74    40    66 1
    75    40    67 1
    76    42    41 1
    77    42    43 1
    78    42    68 1
    79    42    69 1
    80    43    70 1
    81    43    71 1
@<TRIPOS>SUBSTRUCTURE
     1 P38         1 TEMP              0 ****  ****    0 ROOT
