@<TRIPOS>MOLECULE
molecule
   79    84     1     0     0
SMALL
bcc


@<TRIPOS>ATOM
      1 C18          0.0000     0.0000     0.0000 ca         1 P39      -0.123500
      2 C17          1.3820     0.0000     0.0000 ca         1 P39      -0.123000
      3 C16          2.0750     0.0000     1.1970 ca         1 P39      -0.097300
      4 C15          4.0910    -1.4210     1.4470 c3         1 P39      -0.104100
      5 C19         -0.6910     0.0050     1.1980 ca         1 P39      -0.126000
      6 C20          0.0010     0.0100     2.3950 ca         1 P39      -0.123500
      7 C21          1.3830    -0.0010     2.3950 ca         1 P39      -0.123000
      8 C23         10.2210     5.5860     4.9880 ca         1 P39       0.150600
      9 C24         11.5680     5.2850     4.8190 ca         1 P39      -0.124300
     10 C34         11.7260    11.8540     8.2390 ca         1 P39      -0.088000
     11 C27         10.8180     7.4470     6.3830 ca         1 P39       0.064600
     12 C33         10.9050    10.7290     8.1660 ca         1 P39      -0.128600
     13 N1           5.8770     3.5190     5.0940 na         1 P39       0.250200
     14 N2           5.6910     4.1670     6.3240 nc         1 P39      -0.592800
     15 C3           6.6280     4.9350     6.8080 cd         1 P39       0.702900
     16 N4           7.7820     5.1370     6.1730 nd         1 P39      -0.871000
     17 C5           8.0420     4.5660     5.0090 cc         1 P39       0.803200
     18 C6           7.0710     3.7190     4.4230 cc         1 P39      -0.305600
     19 C7           7.0320     2.9930     3.2540 cd         1 P39      -0.030200
     20 C8           5.7840     2.3390     3.2200 cd         1 P39      -0.227200
     21 C9           5.1080     2.6880     4.3780 cc         1 P39      -0.076100
     22 N13          4.0700     0.8870     2.2550 ns         1 P39      -0.580900
     23 C14          3.5810    -0.0010     1.1960 c3         1 P39       0.164000
     24 N22          9.2450     4.7950     4.3740 nu         1 P39      -0.736300
     25 C25         12.5320     6.0630     5.4300 ca         1 P39      -0.098000
     26 C26         12.1620     7.1410     6.2100 ca         1 P39      -0.135000
     27 C28          9.8470     6.6690     5.7700 ca         1 P39      -0.148000
     28 C29         11.9760     4.1100     3.9700 c3         1 P39      -0.046800
     29 N30         10.4440     8.5390     7.1740 ns         1 P39      -0.471100
     30 C31         11.2400     9.6250     7.2420 c          1 P39       0.675700
     31 O32         12.2320     9.6970     6.5430 o          1 P39      -0.594100
     32 C35         11.4050    12.8860     9.1080 ca         1 P39       0.096600
     33 C36         10.2660    12.7980     9.9000 ca         1 P39      -0.160000
     34 C37          9.4490    11.6850     9.8240 ca         1 P39      -0.111000
     35 C38          9.7650    10.6490     8.9690 ca         1 P39      -0.132000
     36 N39         12.2280    14.0120     9.1890 nh         1 P39      -0.593000
     37 C40         13.6090    13.6330     9.5180 c3         1 P39       0.123800
     38 C41         14.4860    14.8870     9.5380 c3         1 P39       0.136900
     39 O42         13.9450    15.8260    10.4720 os         1 P39      -0.422600
     40 C43         12.6020    16.2180    10.1810 c3         1 P39       0.136900
     41 C44         11.7050    14.9760    10.1680 c3         1 P39       0.123800
     42 H18         -0.5420    -0.0020    -0.9380 ha         1 P39       0.132000
     43 H17          1.9240    -0.0020    -0.9380 ha         1 P39       0.130000
     44 H15          4.4220    -1.5100     2.4740 hc         1 P39       0.046367
     45 H15A         4.9190    -1.6300     0.7810 hc         1 P39       0.046367
     46 H15B         3.2920    -2.1290     1.2630 hc         1 P39       0.046367
     47 H19         -1.7740     0.0100     1.1980 ha         1 P39       0.131000
     48 H20         -0.5410     0.0120     3.3330 ha         1 P39       0.132000
     49 H21          1.9250     0.0010     3.3330 ha         1 P39       0.130000
     50 H3           6.4620     5.4250     7.7590 h5         1 P39       0.072100
     51 H9           4.1190     2.3450     4.6590 h4         1 P39       0.179000
     52 HN13         3.4790     1.1120     3.0320 hn         1 P39       0.314500
     53 H14          3.9420     0.3490     0.2370 h1         1 P39       0.084700
     54 HN22         9.4020     4.4300     3.4550 hn         1 P39       0.471800
     55 H25         13.5810     5.8270     5.2970 ha         1 P39       0.138000
     56 H26         12.9220     7.7490     6.6880 ha         1 P39       0.163000
     57 H28          8.7980     6.9050     5.9030 ha         1 P39       0.166000
     58 H29         13.0560     4.0220     3.9690 hc         1 P39       0.042700
     59 H29A        11.6250     4.2580     2.9560 hc         1 P39       0.042700
     60 H29B        11.5410     3.2040     4.3740 hc         1 P39       0.042700
     61 HN30         9.5870     8.5130     7.6900 hn         1 P39       0.329500
     62 H36         10.0150    13.6060    10.5760 ha         1 P39       0.140000
     63 H37          8.5640    11.6220    10.4450 ha         1 P39       0.134000
     64 H38          9.1240     9.7780     8.9150 ha         1 P39       0.124000
     65 H40         13.6320    13.1620    10.4930 h1         1 P39       0.052700
     66 H40A        13.9820    12.9440     8.7690 h1         1 P39       0.052700
     67 H41         15.4920    14.6200     9.8380 h1         1 P39       0.057450
     68 H41A        14.5040    15.3310     8.5500 h1         1 P39       0.057450
     69 H43         12.5670    16.6970     9.2100 h1         1 P39       0.057450
     70 H43A        12.2540    16.9050    10.9430 h1         1 P39       0.057450
     71 H44         11.7010    14.5240    11.1530 h1         1 P39       0.052700
     72 H44A        10.6980    15.2610     9.8910 h1         1 P39       0.052700
     73 C11          5.2920     1.4460     2.1550 c          1 P39       0.710300
     74 C10          8.1170     2.9130     2.2100 c3         1 P39      -0.050900
     75 O12          5.9890     1.2140     1.1860 o          1 P39      -0.619100
     76 H34         12.6130    11.9200     7.6200 ha         1 P39       0.164000
     77 H10          8.3490     3.9090     1.8540 hc         1 P39       0.058700
     78 H10A         9.0040     2.4680     2.6440 hc         1 P39       0.058700
     79 H10B         7.7760     2.3040     1.3810 hc         1 P39       0.058700
@<TRIPOS>BOND
     1     5     1 ar
     2     1     2 ar
     3     1    42 1
     4     2     3 ar
     5     2    43 1
     6     7     3 ar
     7     3    23 1
     8     4    23 1
     9     4    44 1
    10     4    45 1
    11     4    46 1
    12     5     6 ar
    13     5    47 1
    14     6     7 ar
    15     6    48 1
    16     7    49 1
    17    24     8 1
    18     8     9 ar
    19     8    27 ar
    20    28     9 1
    21     9    25 ar
    22    22    73 1
    23    73    75 2
    24    73    20 1
    25    12    10 ar
    26    10    32 ar
    27    10    76 1
    28    27    11 ar
    29    11    26 ar
    30    11    29 1
    31    30    12 1
    32    12    35 ar
    33    21    13 1
    34    13    14 1
    35    13    18 1
    36    14    15 2
    37    15    16 1
    38    15    50 1
    39    17    16 2
    40    18    17 1
    41    17    24 1
    42    19    18 2
    43    20    19 1
    44    19    74 1
    45    21    20 2
    46    21    51 1
    47    74    77 1
    48    74    78 1
    49    74    79 1
    50    23    22 1
    51    22    52 1
    52    23    53 1
    53    24    54 1
    54    25    26 ar
    55    25    55 1
    56    26    56 1
    57    27    57 1
    58    28    58 1
    59    28    59 1
    60    28    60 1
    61    29    30 1
    62    29    61 1
    63    31    30 2
    64    32    33 ar
    65    32    36 1
    66    34    33 ar
    67    33    62 1
    68    35    34 ar
    69    34    63 1
    70    35    64 1
    71    37    36 1
    72    36    41 1
    73    37    38 1
    74    37    65 1
    75    37    66 1
    76    38    39 1
    77    38    67 1
    78    38    68 1
    79    39    40 1
    80    41    40 1
    81    40    69 1
    82    40    70 1
    83    41    71 1
    84    41    72 1
@<TRIPOS>SUBSTRUCTURE
     1 P39         1 TEMP              0 ****  ****    0 ROOT
