@<TRIPOS>MOLECULE
P3B
   43    44     1     0     0
SMALL
bcc


@<TRIPOS>ATOM
      1 OAH          0.0000     0.0000     0.0000 o          1 P3B      -0.752167
      2 PBA          1.6100     0.0000     0.0000 p5         1 P3B       0.664900
      3 OAI          2.1040     0.0000     1.3950 o          1 P3B      -0.752167
      4 OAC          2.1470    -1.3140    -0.7600 o          1 P3B      -0.752167
      5 OAQ          2.1460     1.3150    -0.7600 os         1 P3B      -0.491200
      6 CAM          3.5320     1.6570    -0.8390 c3         1 P3B       0.321600
      7 CAV          3.6880     2.9400    -1.6150 cc         1 P3B      -0.076200
      8 CAL          2.6020     3.5750    -2.1120 cd         1 P3B      -0.174000
      9 NAP          2.7310     4.7290    -2.8120 na         1 P3B      -0.041800
     10 CAU          3.9480     5.2870    -3.0390 cd         1 P3B      -0.213200
     11 CAA          4.0470     6.5700    -3.8230 c3         1 P3B       0.088100
     12 CAW          5.0780     4.6990    -2.5670 cc         1 P3B       0.071100
     13 OAE          6.2950     5.2600    -2.7970 oh         1 P3B      -0.455100
     14 CAX          4.9720     3.4940    -1.8260 cc         1 P3B       0.002000
     15 CAJ          6.1230     2.8550    -1.3200 cf         1 P3B      -0.120400
     16 NAO          7.3150     3.3780    -1.5350 nf         1 P3B      -0.421300
     17 CAT          8.3910     2.8350    -0.9740 ce         1 P3B       0.265600
     18 CAK          8.2680     1.6500    -0.2680 ce         1 P3B      -0.234600
     19 CAS          9.3620     1.0510     0.3310 cf         1 P3B      -0.151400
     20 CAR          9.1940    -0.1440     1.0360 c          1 P3B       0.952800
     21 OAD          8.0890    -0.6520     1.1200 o          1 P3B      -0.891300
     22 OAB         10.2580    -0.7360     1.6240 o          1 P3B      -0.891300
     23 CAN         10.7300     1.6720     0.2320 c3         1 P3B       0.011800
     24 CAY         10.5900     3.1910     0.1090 c3         1 P3B       0.154100
     25 OAF         11.8840     3.7760    -0.0510 oh         1 P3B      -0.617800
     26 CAZ          9.7280     3.5100    -1.1210 c3         1 P3B       0.181800
     27 OAG          9.5360     4.9230    -1.2150 oh         1 P3B      -0.571800
     28 H3           4.0720     0.8640    -1.3400 h1         1 P3B       0.007700
     29 H4           3.9280     1.7890     0.1610 h1         1 P3B       0.007700
     30 H5           1.6160     3.1560    -1.9480 h4         1 P3B       0.186000
     31 H6           3.0540     6.9740    -3.9810 hc         1 P3B      -0.007967
     32 H7           4.6430     7.2860    -3.2710 hc         1 P3B      -0.007967
     33 H8           4.5130     6.3730    -4.7810 hc         1 P3B      -0.007967
     34 H9           6.5530     5.0970    -3.6890 ho         1 P3B       0.367000
     35 H10          6.0300     1.9310    -0.7630 h4         1 P3B       0.158000
     36 H11          7.2950     1.1820    -0.1820 ha         1 P3B       0.167000
     37 H13         11.2990     1.4330     1.1220 hc         1 P3B       0.025200
     38 H14         10.1130     3.5850     0.9980 h1         1 P3B       0.017700
     39 H15         12.1740     4.1280     0.7750 ho         1 P3B       0.371000
     40 H16         10.2220     3.1450    -2.0130 h1         1 P3B      -0.009300
     41 H17         10.0480     5.2620    -1.9310 ho         1 P3B       0.356000
     42 H18          1.9120     5.1790    -3.1690 hn         1 P3B       0.237800
     43 H19         11.2390     1.2850    -0.6430 hc         1 P3B       0.025200
@<TRIPOS>BOND
     1     1     2 1   
     2     2     3 1   
     3     2     4 1   
     4     2     5 1   
     5     5     6 1   
     6     6     7 1   
     7     6    28 1   
     8     6    29 1   
     9     7     8 2   
    10     7    14 1   
    11     8     9 1   
    12     8    30 1   
    13     9    10 1   
    14     9    42 1   
    15    10    11 1   
    16    10    12 2   
    17    11    31 1   
    18    11    32 1   
    19    11    33 1   
    20    12    13 1   
    21    12    14 1   
    22    13    34 1   
    23    14    15 2   
    24    15    16 1   
    25    15    35 1   
    26    16    17 2   
    27    17    18 1   
    28    17    26 1   
    29    18    19 2   
    30    18    36 1   
    31    19    20 1   
    32    19    23 1   
    33    20    21 1   
    34    20    22 1   
    35    23    24 1   
    36    23    37 1   
    37    23    43 1   
    38    24    25 1   
    39    24    26 1   
    40    24    38 1   
    41    25    39 1   
    42    26    27 1   
    43    26    40 1   
    44    27    41 1   
@<TRIPOS>SUBSTRUCTURE
     1 P3B         1 TEMP              0 ****  ****    0 ROOT
