@<TRIPOS>MOLECULE
molecule
   43    44     1     0     0
SMALL
bcc


@<TRIPOS>ATOM
      1 OAH          0.0000     0.0000     0.0000 o          1 P3B      -0.909167
      2 PBA          1.6100     0.0000     0.0000 p5         1 P3B       1.179900
      3 OAI          2.1040     0.0000     1.3950 o          1 P3B      -0.909167
      4 OAC          2.1470    -1.3140    -0.7600 o          1 P3B      -0.909167
      5 OAQ          2.1460     1.3150    -0.7600 os         1 P3B      -0.598200
      6 CAM          3.5320     1.6570    -0.8390 c3         1 P3B       0.258600
      7 CAV          3.6880     2.9400    -1.6150 cc         1 P3B      -0.108200
      8 CAL          2.6020     3.5750    -2.1120 cd         1 P3B       0.024000
      9 NAP          2.7310     4.7290    -2.8120 na         1 P3B      -0.585800
     10 CAU          3.9480     5.2870    -3.0390 cd         1 P3B       0.004800
     11 CAA          4.0470     6.5700    -3.8230 c3         1 P3B      -0.040900
     12 CAW          5.0780     4.6990    -2.5670 cc         1 P3B       0.055100
     13 OAE          6.2950     5.2600    -2.7970 oh         1 P3B      -0.477100
     14 CAX          4.9720     3.4940    -1.8260 cc         1 P3B       0.002000
     15 CAJ          6.1230     2.8550    -1.3200 cf         1 P3B      -0.043400
     16 NAO          7.3150     3.3780    -1.5350 nf         1 P3B      -0.555300
     17 CAT          8.3910     2.8350    -0.9740 ce         1 P3B       0.366600
     18 CAK          8.2680     1.6500    -0.2680 ce         1 P3B      -0.265600
     19 CAS          9.3620     1.0510     0.3310 cf         1 P3B      -0.129400
     20 CAR          9.1940    -0.1440     1.0360 c          1 P3B       0.862800
     21 OAD          8.0890    -0.6520     1.1200 o          1 P3B      -0.843300
     22 OAB         10.2580    -0.7360     1.6240 o          1 P3B      -0.843300
     23 CAN         10.7300     1.6720     0.2320 c3         1 P3B      -0.048200
     24 CAY         10.5900     3.1910     0.1090 c3         1 P3B       0.117100
     25 OAF         11.8840     3.7760    -0.0510 oh         1 P3B      -0.637800
     26 CAZ          9.7280     3.5100    -1.1210 c3         1 P3B       0.135800
     27 OAG          9.5360     4.9230    -1.2150 oh         1 P3B      -0.587800
     28 H3           3.9280     1.7890     0.1610 h1         1 P3B       0.048200
     29 H4           4.0720     0.8640    -1.3400 h1         1 P3B       0.048200
     30 H5           1.6160     3.1560    -1.9480 h4         1 P3B       0.208000
     31 H6           4.5110     6.3730    -4.7820 hc         1 P3B       0.030367
     32 H7           3.0540     6.9750    -3.9790 hc         1 P3B       0.030367
     33 H8           4.6460     7.2850    -3.2720 hc         1 P3B       0.030367
     34 H9           6.5520     5.0990    -3.6900 ho         1 P3B       0.385000
     35 H10          6.0300     1.9310    -0.7630 h4         1 P3B       0.151000
     36 H11          7.2950     1.1810    -0.1830 ha         1 P3B       0.187000
     37 H13         11.2390     1.2850    -0.6430 hc         1 P3B       0.055700
     38 H14         10.1130     3.5850     0.9980 h1         1 P3B       0.051700
     39 H15         12.1740     4.1280     0.7750 ho         1 P3B       0.384000
     40 H16         10.2220     3.1450    -2.0130 h1         1 P3B       0.028700
     41 H17         10.0470     5.2620    -1.9310 ho         1 P3B       0.373000
     42 H18          1.9120     5.1790    -3.1690 hn         1 P3B       0.416800
     43 H19         11.2990     1.4330     1.1220 hc         1 P3B       0.055700
@<TRIPOS>BOND
     1    25    24 1
     2    27    26 1
     3    24    26 1
     4    24    23 1
     5    26    17 1
     6    23    19 1
     7    13    12 1
     8    17    16 2
     9    17    18 1
    10    16    15 1
    11    19    18 2
    12    19    20 1
    13    11    10 1
    14    21    20 1
    15    12    10 2
    16    12    14 1
    17    20    22 1
    18    10     9 1
    19    15    14 2
    20    14     7 1
    21     9     8 1
    22     7     8 2
    23     7     6 1
    24     3     2 1
    25     6     5 1
    26     5     2 1
    27     2     4 1
    28     2     1 1
    29     6    28 1
    30     6    29 1
    31     8    30 1
    32    11    31 1
    33    11    32 1
    34    11    33 1
    35    13    34 1
    36    15    35 1
    37    18    36 1
    38    23    37 1
    39    24    38 1
    40    25    39 1
    41    26    40 1
    42    27    41 1
    43     9    42 1
    44    23    43 1
@<TRIPOS>SUBSTRUCTURE
     1 P3B         1 TEMP              0 ****  ****    0 ROOT
