@<TRIPOS>MOLECULE
molecule
   43    43     1     0     0
SMALL
bcc


@<TRIPOS>ATOM
      1 OAE          0.0000     0.0000     0.0000 o          1 P3D      -0.796167
      2 PAV          1.6100     0.0000     0.0000 p5         1 P3D       1.186900
      3 OAF          2.1460     0.0000     1.5180 o          1 P3D      -0.796167
      4 OAC          2.1030     1.2090    -0.6960 o          1 P3D      -0.796167
      5 OAQ          2.1470    -1.3140    -0.7590 os         1 P3D      -0.579200
      6 CAN          1.9290    -1.5520    -2.1520 c3         1 P3D       0.250700
      7 CAT          2.5580    -2.8640    -2.5420 ca         1 P3D      -0.139600
      8 CAH          3.2180    -3.6300    -1.6020 ca         1 P3D       0.441200
      9 NAP          3.7730    -4.7810    -1.9310 nb         1 P3D      -0.684000
     10 CAR          3.7280    -5.2550    -3.1590 ca         1 P3D       0.357600
     11 CAA          4.3820    -6.5780    -3.4690 c3         1 P3D      -0.129400
     12 CAS          3.0850    -4.5540    -4.1690 ca         1 P3D       0.005800
     13 OAD          3.0410    -5.0480    -5.4320 oh         1 P3D      -0.506100
     14 CAU          2.4770    -3.3260    -3.8600 ca         1 P3D      -0.171900
     15 CAG          1.7760    -2.5450    -4.8970 ce         1 P3D       0.507800
     16 NAO          1.7120    -2.9900    -6.1090 n2         1 P3D      -0.627900
     17 CAM          1.0160    -2.2130    -7.1390 c3         1 P3D       0.113800
     18 CAL          2.0200    -1.7520    -8.1960 c3         1 P3D      -0.075400
     19 CAK          1.2940    -0.9410    -9.2720 c3         1 P3D      -0.081400
     20 CAJ          2.2990    -0.4810   -10.3290 c3         1 P3D      -0.099400
     21 CAI          1.5720     0.3300   -11.4040 c3         1 P3D       0.064800
     22 NAB          2.5370     0.7740   -12.4180 nz         1 P3D      -0.809600
     23 HAN1         2.3760    -0.7510    -2.7290 h1         1 P3D       0.037200
     24 HAN2         0.8650    -1.5890    -2.3500 h1         1 P3D       0.037200
     25 HAH          3.2820    -3.2810    -0.5790 h4         1 P3D       0.082100
     26 HAA1         5.0620    -6.4570    -4.3040 hc         1 P3D       0.040367
     27 HAA2         4.9320    -6.9210    -2.6020 hc         1 P3D       0.040367
     28 HAA3         3.6210    -7.3050    -3.7250 hc         1 P3D       0.040367
     29 HOAD         2.3410    -5.6760    -5.5000 ho         1 P3D       0.408000
     30 HAG1         1.3150    -1.5980    -4.6430 h4         1 P3D      -0.005200
     31 HAM1         0.2590    -2.8310    -7.6060 h1         1 P3D       0.036700
     32 HAM2         0.5470    -1.3490    -6.6850 h1         1 P3D       0.036700
     33 HAL1         2.7780    -1.1350    -7.7290 hc         1 P3D       0.055700
     34 HAL2         2.4890    -2.6170    -8.6510 hc         1 P3D       0.055700
     35 HAK1         0.8250    -0.0760    -8.8170 hc         1 P3D       0.048700
     36 HAK2         0.5360    -1.5580    -9.7390 hc         1 P3D       0.048700
     37 HAJ1         2.7670    -1.3450   -10.7830 hc         1 P3D       0.055700
     38 HAJ2         3.0570     0.1370    -9.8610 hc         1 P3D       0.055700
     39 HAI1         0.8150    -0.2870   -11.8710 hx         1 P3D       0.082200
     40 HAI2         1.1030     1.1950   -10.9490 hx         1 P3D       0.082200
     41 HAB1         2.9700    -0.0250   -12.8380 hn         1 P3D       0.374467
     42 HAB2         3.2370     1.3440   -11.9870 hn         1 P3D       0.374467
     43 HAB3         2.0620     1.3040   -13.1220 hn         1 P3D       0.374467
@<TRIPOS>BOND
     1     1     2 1
     2     2     5 1
     3     2     3 1
     4     2     4 1
     5     5     6 1
     6     6     7 1
     7     6    23 1
     8     6    24 1
     9     7     8 ar
    10     7    14 ar
    11     8     9 ar
    12     8    25 1
    13     9    10 ar
    14    10    11 1
    15    10    12 ar
    16    11    26 1
    17    11    27 1
    18    11    28 1
    19    12    13 1
    20    12    14 ar
    21    13    29 1
    22    14    15 1
    23    15    16 2
    24    15    30 1
    25    16    17 1
    26    17    18 1
    27    17    31 1
    28    17    32 1
    29    18    19 1
    30    18    33 1
    31    18    34 1
    32    19    20 1
    33    19    35 1
    34    19    36 1
    35    20    21 1
    36    20    37 1
    37    20    38 1
    38    21    22 1
    39    21    39 1
    40    21    40 1
    41    22    41 1
    42    22    42 1
    43    43    22 1
@<TRIPOS>SUBSTRUCTURE
     1 P3D         1 TEMP              0 ****  ****    0 ROOT
