@<TRIPOS>MOLECULE
P3D
   42    42     1     0     0
SMALL
bcc


@<TRIPOS>ATOM
      1 OAE         1.2420    2.0870    2.2160 o         1 P3D     -0.925833
      2 PAV         2.6410    1.5730    1.9910 p5        1 P3D      1.308900
      3 OAF         3.7100    2.3820    2.6780 o         1 P3D     -0.925833
      4 OAC         2.8340    0.0900    1.9020 o         1 P3D     -0.925833
      5 OAQ         2.8900    2.0990    0.3220 os        1 P3D     -0.556200
      6 CAN         2.7290    3.4620    0.3160 c3        1 P3D      0.191700
      7 CAT         2.9090    4.0750   -1.0380 ca        1 P3D     -0.066600
      8 CAH         3.2160    3.2420   -2.1470 ca        1 P3D      0.362200
      9 NAP         3.3980    3.6780   -3.3960 nb        1 P3D     -0.656000
     10 CAR         3.2830    5.0100   -3.6300 ca        1 P3D      0.293600
     11 CAA         3.4770    5.5480   -5.0080 c3        1 P3D     -0.109400
     12 CAS         2.9780    5.9270   -2.5900 ca        1 P3D      0.049800
     13 OAD         2.8950    7.2420   -2.9820 oh        1 P3D     -0.534100
     14 CAU         2.7870    5.4610   -1.2690 ca        1 P3D     -0.254900
     15 CAG         2.4700    6.3180   -0.1220 ce        1 P3D      0.514800
     16 NAO         2.3250    7.6010   -0.1710 n2        1 P3D     -0.700900
     17 CAM         2.0140    8.3660    1.0010 c3        1 P3D      0.131800
     18 CAL         1.8510    7.6430    2.3360 c3        1 P3D     -0.126400
     19 CAK         1.5260    8.6200    3.4440 c3        1 P3D     -0.061400
     20 CAJ         1.3660    7.8910    4.7610 c3        1 P3D     -0.127400
     21 CAI         1.0380    8.8680    5.8890 c3        1 P3D      0.147800
     22 NAB         0.8610    8.2920    7.2010 n3        1 P3D     -0.909800
     23 HAN1        1.6860    3.7100    0.6930 h1        1 P3D      0.055700
     24 HAN2        3.4820    3.9250    1.0290 h1        1 P3D      0.055700
     25 HAH         3.3110    2.1520   -1.9550 h4        1 P3D      0.075100
     26 HAA1        3.7110    4.7450   -5.7470 hc        1 P3D      0.027033
     27 HAA2        2.5470    6.0790   -5.3320 hc        1 P3D      0.027033
     28 HAA3        4.3140    6.2900   -5.0010 hc        1 P3D      0.027033
     29 HOAD        2.6850    7.7870   -2.2080 ho        1 P3D      0.445000
     30 HAG1        2.3600    5.7400    0.8300 h4        1 P3D      0.027800
     31 HAM1        1.0590    8.9250    0.7770 h1        1 P3D      0.033700
     32 HAM2        2.8330    9.1360    1.1090 h1        1 P3D      0.033700
     33 HAL1        2.7930    7.0880    2.5910 hc        1 P3D      0.070700
     34 HAL2        1.0320    6.8780    2.2610 hc        1 P3D      0.070700
     35 HAK1        2.3440    9.3830    3.5300 hc        1 P3D      0.023700
     36 HAK2        0.5810    9.1730    3.2000 hc        1 P3D      0.023700
     37 HAJ1        2.3120    7.3350    4.9960 hc        1 P3D      0.059700
     38 HAJ2        0.5520    7.1250    4.6660 hc        1 P3D      0.059700
     39 HAI1        0.0910    9.4190    5.6270 h1        1 P3D      0.037700
     40 HAI2        1.8650    9.6310    5.9590 h1        1 P3D      0.037700
     41 HAB1        0.1140    7.6240    7.1880 hn        1 P3D      0.342800
     42 HAB2        1.6950    7.8130    7.4840 hn        1 P3D      0.342800
@<TRIPOS>BOND
     1    1    2 1   
     2    2    3 1   
     3    2    4 1   
     4    2    5 1   
     5    5    6 1   
     6    6    7 1   
     7    6   23 1   
     8    6   24 1   
     9    7    8 ar  
    10    7   14 ar  
    11    8    9 ar  
    12    8   25 1   
    13    9   10 ar  
    14   10   11 1   
    15   10   12 ar  
    16   11   26 1   
    17   11   27 1   
    18   11   28 1   
    19   12   13 1   
    20   12   14 ar  
    21   13   29 1   
    22   14   15 1   
    23   15   16 2   
    24   15   30 1   
    25   16   17 1   
    26   17   18 1   
    27   17   31 1   
    28   17   32 1   
    29   18   19 1   
    30   18   33 1   
    31   18   34 1   
    32   19   20 1   
    33   19   35 1   
    34   19   36 1   
    35   20   21 1   
    36   20   37 1   
    37   20   38 1   
    38   21   22 1   
    39   21   39 1   
    40   21   40 1   
    41   22   41 1   
    42   22   42 1   
@<TRIPOS>SUBSTRUCTURE
     1 P3D         1 TEMP              0 ****  ****    0 ROOT
