@<TRIPOS>MOLECULE
P3F
   49    50     1     0     0
SMALL
bcc


@<TRIPOS>ATOM
      1 O4           0.0000     0.0000     0.0000 o          1 P3F      -0.772500
      2 P1           1.5160     0.0000     0.0000 p5         1 P3F       0.772900
      3 O2           2.1360     0.0000     1.3740 o          1 P3F      -0.772500
      4 O3           2.1820     0.9090    -1.0260 o          1 P3F      -0.772500
      5 O1           1.8460    -1.4730    -0.5900 os         1 P3F      -0.458200
      6 C5           1.4070    -2.6340     0.1320 c3         1 P3F       0.313700
      7 C4           2.2950    -3.8280    -0.1990 ca         1 P3F      -0.177600
      8 C3           1.9690    -4.5480    -1.3460 ca         1 P3F       0.420200
      9 N1           2.6610    -5.6340    -1.7230 nb         1 P3F      -0.631000
     10 C2           3.7290    -6.0660    -1.0160 ca         1 P3F       0.309600
     11 C1           4.4910    -7.3060    -1.4660 c3         1 P3F      -0.009400
     12 C17          4.0800    -5.3690     0.1550 ca         1 P3F      -0.061200
     13 O9           5.1430    -5.8210     0.8640 oh         1 P3F      -0.496100
     14 C6           3.4040    -4.1940     0.5680 ca         1 P3F       0.058100
     15 C7           3.8070    -3.5920     1.9100 ce         1 P3F       0.302800
     16 N2           4.5840    -2.8530     2.6240 n2         1 P3F      -0.381300
     17 N3           4.2440    -3.1590     3.9920 ns         1 P3F      -0.052900
     18 C8           4.8650    -3.8840     5.0330 c          1 P3F       0.619100
     19 O5           5.9760    -4.3850     5.2080 o          1 P3F      -0.669100
     20 C9           4.0890    -4.0910     6.3050 c3         1 P3F      -0.072000
     21 N4           2.6880    -3.7190     6.3310 ns         1 P3F      -0.187900
     22 C10          1.7110    -4.3960     6.9760 c          1 P3F       0.589700
     23 O6           1.8810    -5.4580     7.5840 o          1 P3F      -0.661100
     24 C11          0.3360    -3.7880     6.9450 ca         1 P3F      -0.075600
     25 C16          0.1330    -2.4920     7.4320 ca         1 P3F      -0.216300
     26 C18          1.2700    -1.7080     8.0120 c3         1 P3F       0.628200
     27 F2           1.6400    -2.3500     9.1140 f          1 P3F      -0.193300
     28 F1           0.8500    -0.4730     8.2680 f          1 P3F      -0.193300
     29 F3           2.2870    -1.6350     7.1760 f          1 P3F      -0.193300
     30 C12         -0.7460    -4.4930     6.4400 ca         1 P3F      -0.054000
     31 C13         -2.0100    -3.8970     6.4270 ca         1 P3F      -0.073000
     32 C14         -2.2040    -2.6160     6.9130 ca         1 P3F      -0.096000
     33 C15         -1.1320    -1.9070     7.4230 ca         1 P3F      -0.044000
     34 H51          1.4560    -2.4340     1.1950 h1         1 P3F      -0.012300
     35 H52          0.3840    -2.8610    -0.1430 h1         1 P3F      -0.012300
     36 H3           1.1190    -4.2350    -1.9400 h4         1 P3F      -0.001900
     37 H11          3.9780    -7.7610    -2.3040 hc         1 P3F      -0.001633
     38 H12A         5.4940    -7.0250    -1.7650 hc         1 P3F      -0.001633
     39 H13A         4.5440    -8.0140    -0.6470 hc         1 P3F      -0.001633
     40 HO9          5.9360    -5.4580     0.5080 ho         1 P3F       0.390000
     41 H7           4.1540    -3.0030     1.0690 h4         1 P3F       0.018800
     42 HN3          3.3650    -2.7670     4.2670 hn         1 P3F       0.178500
     43 H91          4.5890    -3.5320     7.0860 h1         1 P3F       0.045200
     44 H92          4.1520    -5.1420     6.5580 h1         1 P3F       0.045200
     45 HN4          2.4230    -2.8950     5.8300 hn         1 P3F       0.208500
     46 H12         -0.6110    -5.4970     6.0560 ha         1 P3F       0.119000
     47 H13         -2.8540    -4.4490     6.0300 ha         1 P3F       0.099000
     48 H14         -3.1920    -2.1720     6.8970 ha         1 P3F       0.104000
     49 H15         -1.2720    -0.9030     7.8050 ha         1 P3F       0.120000
@<TRIPOS>BOND
     1     1     2 1   
     2     2     3 1   
     3     2     4 1   
     4     2     5 1   
     5     5     6 1   
     6     6     7 1   
     7     6    34 1   
     8     6    35 1   
     9     7     8 ar  
    10     7    14 ar  
    11     8     9 ar  
    12     8    36 1   
    13     9    10 ar  
    14    10    11 1   
    15    10    12 ar  
    16    11    37 1   
    17    11    38 1   
    18    11    39 1   
    19    12    13 1   
    20    12    14 ar  
    21    13    40 1   
    22    14    15 1   
    23    15    16 2   
    24    15    41 1   
    25    16    17 1   
    26    17    18 1   
    27    17    42 1   
    28    18    19 2   
    29    18    20 1   
    30    20    21 1   
    31    20    43 1   
    32    20    44 1   
    33    21    22 1   
    34    21    45 1   
    35    22    23 2   
    36    22    24 1   
    37    24    25 ar  
    38    24    30 ar  
    39    25    26 1   
    40    25    33 ar  
    41    26    27 1   
    42    26    28 1   
    43    26    29 1   
    44    30    31 ar  
    45    30    46 1   
    46    31    32 ar  
    47    31    47 1   
    48    32    33 ar  
    49    32    48 1   
    50    33    49 1   
@<TRIPOS>SUBSTRUCTURE
     1 P3F         1 TEMP              0 ****  ****    0 ROOT
