@<TRIPOS>MOLECULE
molecule
   43    42     1     0     0
SMALL
bcc


@<TRIPOS>ATOM
      1 C5           0.0000     0.0000     0.0000 c3         1 P3G      -0.092100
      2 C6           1.5300     0.0000     0.0000 c3         1 P3G       0.121900
      3 O3           2.0060     0.0000     1.3470 os         1 P3G      -0.397600
      4 C7           3.4330    -0.0000     1.2790 c3         1 P3G       0.127400
      5 C8           4.0110     0.0010     2.6960 c3         1 P3G       0.125900
      6 O4           3.5670    -1.1650     3.3920 os         1 P3G      -0.383100
      7 C9           4.1360    -1.1060     4.7010 c3         1 P3G       0.126400
      8 C10          3.6980    -2.3330     5.5040 c3         1 P3G       0.126400
      9 O5           4.1430    -3.5180     4.8430 os         1 P3G      -0.383600
     10 C11          3.7040    -4.6220     5.6370 c3         1 P3G       0.126400
     11 C12          4.1520    -5.9310     4.9820 c3         1 P3G       0.126400
     12 O6           5.5770    -5.9500     4.8830 os         1 P3G      -0.383100
     13 C13          5.9300    -7.1900     4.2670 c3         1 P3G       0.125900
     14 C14          7.4520    -7.2770     4.1320 c3         1 P3G       0.127400
     15 O7           8.0510    -7.2000     5.4270 os         1 P3G      -0.397600
     16 C15          9.4640    -7.2870     5.2330 c3         1 P3G       0.121900
     17 C16         10.1690    -7.2110     6.5880 c3         1 P3G      -0.092100
     18 H51         -0.3610    -0.9120     0.4590 hc         1 P3G       0.042867
     19 H5          -0.3610     0.8540     0.5610 hc         1 P3G       0.042867
     20 H52         -0.3610     0.0590    -1.0200 hc         1 P3G       0.042867
     21 H61          1.8910    -0.8850    -0.5110 h1         1 P3G       0.022450
     22 H62          1.8910     0.8850    -0.5110 h1         1 P3G       0.022450
     23 H71          3.7700    -0.8860     0.7520 h1         1 P3G       0.033200
     24 H72          3.7700     0.8830     0.7500 h1         1 P3G       0.033200
     25 H81          3.6740     0.8860     3.2230 h1         1 P3G       0.032200
     26 H82          5.0930     0.0010     2.6450 h1         1 P3G       0.032200
     27 H91          3.7970    -0.2070     5.2020 h1         1 P3G       0.032700
     28 H92          5.2170    -1.0910     4.6250 h1         1 P3G       0.032700
     29 H101         4.1300    -2.2890     6.4960 h1         1 P3G       0.033200
     30 H102         2.6170    -2.3470     5.5810 h1         1 P3G       0.033200
     31 H111         4.1350    -4.5480     6.6280 h1         1 P3G       0.033200
     32 H112         2.6230    -4.6060     5.7110 h1         1 P3G       0.033200
     33 H121         3.7200    -6.0050     3.9910 h1         1 P3G       0.032700
     34 H122         3.8200    -6.7680     5.5840 h1         1 P3G       0.032700
     35 H131         5.5750    -8.0110     4.8790 h1         1 P3G       0.032200
     36 H132         5.4760    -7.2480     3.2860 h1         1 P3G       0.032200
     37 H141         7.7200    -8.2170     3.6650 h1         1 P3G       0.033200
     38 H142         7.8070    -6.4560     3.5200 h1         1 P3G       0.033200
     39 H151         9.7930    -6.4660     4.6080 h1         1 P3G       0.022450
     40 H152         9.7060    -8.2270     4.7520 h1         1 P3G       0.022450
     41 H16          9.7970    -7.9970     7.2340 hc         1 P3G       0.042867
     42 H162         9.9750    -6.2470     7.0430 hc         1 P3G       0.042867
     43 H161        11.2360    -7.3350     6.4470 hc         1 P3G       0.042867
@<TRIPOS>BOND
     1     1     2 1
     2     1    18 1
     3     1    19 1
     4     1    20 1
     5     2     3 1
     6     2    21 1
     7     2    22 1
     8     3     4 1
     9     4     5 1
    10     4    23 1
    11     4    24 1
    12     5     6 1
    13     5    25 1
    14     5    26 1
    15     6     7 1
    16     7     8 1
    17     7    27 1
    18     7    28 1
    19     8     9 1
    20     8    29 1
    21     8    30 1
    22     9    10 1
    23    10    11 1
    24    10    31 1
    25    10    32 1
    26    11    12 1
    27    11    33 1
    28    11    34 1
    29    12    13 1
    30    13    14 1
    31    13    35 1
    32    13    36 1
    33    14    15 1
    34    14    37 1
    35    14    38 1
    36    15    16 1
    37    16    17 1
    38    16    39 1
    39    16    40 1
    40    17    41 1
    41    17    42 1
    42    17    43 1
@<TRIPOS>SUBSTRUCTURE
     1 P3G         1 TEMP              0 ****  ****    0 ROOT
