@<TRIPOS>MOLECULE
P3G
   43    42     1     0     0
SMALL
bcc


@<TRIPOS>ATOM
      1 C5         -0.7950    2.3500    0.8600 c3        1 P3G     -0.097100
      2 C6         -0.4590    0.8940    0.6400 c3        1 P3G      0.131400
      3 O3          0.9360    0.7460    0.9040 os        1 P3G     -0.428600
      4 C7          1.3830   -0.5930    0.7100 c3        1 P3G      0.126400
      5 C8          2.8370   -0.6340    1.1720 c3        1 P3G      0.127400
      6 O4          2.8640   -1.4460    2.3450 os        1 P3G     -0.429600
      7 C9          4.1420   -1.4350    2.9780 c3        1 P3G      0.127400
      8 C10         4.0800   -2.4720    4.0950 c3        1 P3G      0.127400
      9 O5          4.8650   -3.5810    3.6620 os        1 P3G     -0.429600
     10 C11         4.7640   -4.6930    4.5490 c3        1 P3G      0.127400
     11 C12         5.7760   -5.7270    4.0650 c3        1 P3G      0.127400
     12 O6          6.8480   -5.7160    5.0060 os        1 P3G     -0.429600
     13 C13         7.9440   -6.5240    4.5840 c3        1 P3G      0.127400
     14 C14         8.9250   -6.5660    5.7520 c3        1 P3G      0.126400
     15 O7          8.9190   -7.9070    6.2360 os        1 P3G     -0.428600
     16 C15         9.6940   -8.0550    7.4250 c3        1 P3G      0.131400
     17 C16         9.6230   -9.5130    7.8150 c3        1 P3G     -0.097100
     18 H51        -1.8820    2.5120    0.6680 hc        1 P3G      0.045033
     19 H5         -0.5600    2.6490    1.9100 hc        1 P3G      0.045033
     20 H52        -0.2010    2.9960    0.1710 hc        1 P3G      0.045033
     21 H61        -1.0430    0.2340    1.3360 h1        1 P3G      0.024700
     22 H62        -0.6740    0.5850   -0.4180 h1        1 P3G      0.024700
     23 H71         1.3100   -0.8530   -0.3790 h1        1 P3G      0.041700
     24 H72         0.7550   -1.3050    1.3080 h1        1 P3G      0.041700
     25 H81         3.2100    0.3980    1.4050 h1        1 P3G      0.043200
     26 H82         3.4870   -1.1010    0.3860 h1        1 P3G      0.043200
     27 H91         4.3340   -0.4140    3.4020 h1        1 P3G      0.043200
     28 H92         4.9450   -1.6940    2.2380 h1        1 P3G      0.043200
     29 H101        3.0220   -2.7940    4.2820 h1        1 P3G      0.043450
     30 H102        4.5210   -2.0560    5.0390 h1        1 P3G      0.043450
     31 H111        4.9930   -4.3730    5.6000 h1        1 P3G      0.043450
     32 H112        3.7240   -5.1110    4.4990 h1        1 P3G      0.043450
     33 H121        6.1550   -5.4650    3.0420 h1        1 P3G      0.043200
     34 H122        5.3130   -6.7480    4.0460 h1        1 P3G      0.043200
     35 H131        8.4230   -6.0530    3.6850 h1        1 P3G      0.043200
     36 H132        7.5900   -7.5570    4.3250 h1        1 P3G      0.043200
     37 H141        8.6080   -5.8570    6.5630 h1        1 P3G      0.041700
     38 H142        9.9590   -6.3020    5.4070 h1        1 P3G      0.041700
     39 H151       10.7540   -7.7430    7.2220 h1        1 P3G      0.024700
     40 H152        9.2710   -7.3990    8.2320 h1        1 P3G      0.024700
     41 H16        10.0360  -10.1550    7.0010 hc        1 P3G      0.045033
     42 H162        8.5630   -9.8150    7.9960 hc        1 P3G      0.045033
     43 H161       10.2150   -9.6750    8.7470 hc        1 P3G      0.045033
@<TRIPOS>BOND
     1    1    2 1   
     2    1   18 1   
     3    1   19 1   
     4    1   20 1   
     5    2    3 1   
     6    2   21 1   
     7    2   22 1   
     8    3    4 1   
     9    4    5 1   
    10    4   23 1   
    11    4   24 1   
    12    5    6 1   
    13    5   25 1   
    14    5   26 1   
    15    6    7 1   
    16    7    8 1   
    17    7   27 1   
    18    7   28 1   
    19    8    9 1   
    20    8   29 1   
    21    8   30 1   
    22    9   10 1   
    23   10   11 1   
    24   10   31 1   
    25   10   32 1   
    26   11   12 1   
    27   11   33 1   
    28   11   34 1   
    29   12   13 1   
    30   13   14 1   
    31   13   35 1   
    32   13   36 1   
    33   14   15 1   
    34   14   37 1   
    35   14   38 1   
    36   15   16 1   
    37   16   17 1   
    38   16   39 1   
    39   16   40 1   
    40   17   41 1   
    41   17   42 1   
    42   17   43 1   
@<TRIPOS>SUBSTRUCTURE
     1 P3G         1 TEMP              0 ****  ****    0 ROOT
