@<TRIPOS>MOLECULE
P3I
   46    48     1     0     0
SMALL
bcc


@<TRIPOS>ATOM
      1 Br           0.0000     0.0000     0.0000 br         1 P3I      -0.077100
      2 CAY          1.8910     0.0000     0.0000 ca         1 P3I       0.038100
      3 CAZ          2.5830     0.0000     1.1980 ca         1 P3I      -0.051000
      4 CBA          3.9650    -0.0000     1.1980 ca         1 P3I      -0.065000
      5 CAX          4.6560     0.0000    -0.0000 ca         1 P3I      -0.069000
      6 CAW          3.9660    -0.0010    -1.1970 ca         1 P3I      -0.137000
      7 CAV          2.5830    -0.0060    -1.1970 ca         1 P3I      -0.145300
      8 CAU          1.8300    -0.0130    -2.5030 c3         1 P3I       0.083300
      9 NAQ          2.7750     0.1340    -3.6130 n          1 P3I       0.050000
     10 CAR          3.3460    -0.9850    -4.1780 cc         1 P3I      -0.383400
     11 NAS          3.0320    -2.2390    -3.7060 nz         1 P3I       0.253600
     12 CAP          3.0760     1.3610    -4.0770 c          1 P3I       0.589500
     13 OAO          2.5580     2.3360    -3.5690 o          1 P3I      -0.622500
     14 NAG          3.9410     1.5240    -5.0950 ns         1 P3I      -0.090500
     15 CAH          4.5270     0.4580    -5.6750 c          1 P3I       0.597700
     16 OAA          5.3100     0.6150    -6.5970 o          1 P3I      -0.589500
     17 CAI          4.2270    -0.8360    -5.2140 cd         1 P3I       0.074800
     18 NAJ          4.8270    -1.9680    -5.8130 nh         1 P3I      -0.381300
     19 CAB          5.3920    -3.0280    -4.9730 c3         1 P3I       0.242100
     20 SAK          4.8920    -2.0960    -7.4620 sy         1 P3I       1.043200
     21 OAT          4.5940    -3.4500    -7.7720 o          1 P3I      -0.550800
     22 OAC          4.1520    -0.9980    -7.9790 o          1 P3I      -0.550800
     23 CAL          6.5680    -1.8340    -7.9400 ca         1 P3I      -0.166500
     24 CAM          7.4370    -2.9050    -8.0290 ca         1 P3I       0.001500
     25 CAN          8.7520    -2.7000    -8.4040 ca         1 P3I      -0.124000
     26 CAF          9.1980    -1.4230    -8.6900 ca         1 P3I      -0.022000
     27 CAE          8.3280    -0.3510    -8.6030 ca         1 P3I      -0.124000
     28 CAD          7.0120    -0.5580    -8.2320 ca         1 P3I       0.001500
     29 HAZ          2.0420    -0.0010     2.1370 ha         1 P3I       0.134000
     30 HBA          4.5070    -0.0000     2.1360 ha         1 P3I       0.125000
     31 HAX          5.7400     0.0020     0.0000 ha         1 P3I       0.117000
     32 HAW          4.5070    -0.0030    -2.1350 ha         1 P3I       0.091000
     33 HAU1         1.2940    -0.9490    -2.6070 h1         1 P3I       0.060700
     34 HAU2         1.1250     0.8100    -2.5180 h1         1 P3I       0.060700
     35 HAS1         3.7200    -2.5260    -3.0380 hn         1 P3I       0.227133
     36 HAS2         2.1320    -2.2150    -3.2680 hn         1 P3I       0.227133
     37 HAG          4.1500     2.4450    -5.4240 hn         1 P3I       0.231500
     38 HAB1         4.6650    -3.8230    -4.8580 h1         1 P3I       0.016700
     39 HAB2         5.6420    -2.6240    -4.0000 h1         1 P3I       0.016700
     40 HAB3         6.2860    -3.4220    -5.4420 h1         1 P3I       0.016700
     41 HAM          7.0880    -3.9060    -7.8050 ha         1 P3I       0.136000
     42 HAD          6.3310     0.2820    -8.1630 ha         1 P3I       0.136000
     43 HAN          9.4330    -3.5390    -8.4720 ha         1 P3I       0.119000
     44 HAF         10.2280    -1.2620    -8.9820 ha         1 P3I       0.112000
     45 HAE          8.6770     0.6490    -8.8290 ha         1 P3I       0.119000
     46 HAS3         3.0190    -2.8880    -4.4670 hn         1 P3I       0.227133
@<TRIPOS>BOND
     1     1     2 1   
     2     2     3 ar  
     3     2     7 ar  
     4     3     4 ar  
     5     3    29 1   
     6     4     5 ar  
     7     4    30 1   
     8     5     6 ar  
     9     5    31 1   
    10     6     7 ar  
    11     6    32 1   
    12     7     8 1   
    13     8     9 1   
    14     8    33 1   
    15     8    34 1   
    16     9    10 1   
    17     9    12 1   
    18    10    11 1   
    19    10    17 2   
    20    11    35 1   
    21    11    36 1   
    22    11    46 1   
    23    12    13 2   
    24    12    14 1   
    25    14    15 1   
    26    14    37 1   
    27    15    16 2   
    28    15    17 1   
    29    17    18 1   
    30    18    19 1   
    31    18    20 1   
    32    19    38 1   
    33    19    39 1   
    34    19    40 1   
    35    20    21 2   
    36    20    22 2   
    37    20    23 1   
    38    23    24 ar  
    39    23    28 ar  
    40    24    25 ar  
    41    24    41 1   
    42    25    26 ar  
    43    25    43 1   
    44    26    27 ar  
    45    26    44 1   
    46    27    28 ar  
    47    27    45 1   
    48    28    42 1   
@<TRIPOS>SUBSTRUCTURE
     1 P3I         1 TEMP              0 ****  ****    0 ROOT
