@<TRIPOS>MOLECULE
molecule
   46    48     1     0     0
SMALL
bcc


@<TRIPOS>ATOM
      1 Br           0.0000     0.0000     0.0000 br         1 P3I      -0.056100
      2 CAY          1.8910     0.0000     0.0000 ca         1 P3I      -0.009900
      3 CAZ          2.5830     0.0000     1.1980 ca         1 P3I      -0.078000
      4 CBA          3.9650    -0.0000     1.1980 ca         1 P3I      -0.099000
      5 CAX          4.6560     0.0000    -0.0000 ca         1 P3I      -0.101000
      6 CAW          3.9660    -0.0010    -1.1970 ca         1 P3I      -0.147000
      7 CAV          2.5830    -0.0060    -1.1970 ca         1 P3I      -0.135300
      8 CAU          1.8300    -0.0130    -2.5030 c3         1 P3I       0.146300
      9 NAQ          2.7750     0.1340    -3.6130 n          1 P3I      -0.372000
     10 CAR          3.3460    -0.9850    -4.1780 cc         1 P3I       0.029600
     11 NAS          3.0320    -2.2390    -3.7060 nz         1 P3I      -0.667400
     12 CAP          3.0760     1.3610    -4.0770 c          1 P3I       0.816500
     13 OAO          2.5580     2.3360    -3.5690 o          1 P3I      -0.571500
     14 NAG          3.9410     1.5240    -5.0950 ns         1 P3I      -0.538500
     15 CAH          4.5270     0.4580    -5.6750 c          1 P3I       0.706700
     16 OAA          5.3100     0.6150    -6.5970 o          1 P3I      -0.552500
     17 CAI          4.2270    -0.8360    -5.2140 cd         1 P3I       0.087800
     18 NAJ          4.8270    -1.9680    -5.8130 nh         1 P3I      -0.679300
     19 CAB          5.3920    -3.0280    -4.9730 c3         1 P3I       0.199100
     20 SAK          4.8920    -2.0960    -7.4620 sy         1 P3I       1.399200
     21 OAT          4.5940    -3.4500    -7.7720 o          1 P3I      -0.601800
     22 OAC          4.1520    -0.9980    -7.9790 o          1 P3I      -0.601800
     23 CAL          6.5680    -1.8340    -7.9400 ca         1 P3I      -0.318500
     24 CAM          7.4370    -2.9050    -8.0290 ca         1 P3I      -0.024000
     25 CAN          8.7520    -2.7000    -8.4040 ca         1 P3I      -0.146500
     26 CAF          9.1980    -1.4230    -8.6900 ca         1 P3I      -0.054000
     27 CAE          8.3280    -0.3510    -8.6030 ca         1 P3I      -0.146500
     28 CAD          7.0120    -0.5580    -8.2320 ca         1 P3I      -0.024000
     29 HAZ          2.0420    -0.0010     2.1370 ha         1 P3I       0.168000
     30 HBA          4.5070    -0.0000     2.1360 ha         1 P3I       0.161000
     31 HAX          5.7400     0.0020     0.0000 ha         1 P3I       0.150000
     32 HAW          4.5070    -0.0030    -2.1350 ha         1 P3I       0.118000
     33 HAU1         1.2940    -0.9490    -2.6070 h1         1 P3I       0.092700
     34 HAU2         1.1250     0.8100    -2.5180 h1         1 P3I       0.092700
     35 HAS1         3.7200    -2.5260    -3.0380 hn         1 P3I       0.473467
     36 HAS2         2.1320    -2.2150    -3.2680 hn         1 P3I       0.473467
     37 HAG          4.1500     2.4450    -5.4240 hn         1 P3I       0.399500
     38 HAB1         4.6650    -3.8230    -4.8580 h1         1 P3I       0.057700
     39 HAB2         5.6420    -2.6240    -4.0000 h1         1 P3I       0.057700
     40 HAB3         6.2860    -3.4220    -5.4420 h1         1 P3I       0.057700
     41 HAM          7.0880    -3.9060    -7.8050 ha         1 P3I       0.159500
     42 HAD          6.3310     0.2820    -8.1630 ha         1 P3I       0.159500
     43 HAN          9.4330    -3.5390    -8.4720 ha         1 P3I       0.149000
     44 HAF         10.2280    -1.2620    -8.9820 ha         1 P3I       0.147000
     45 HAE          8.6770     0.6490    -8.8290 ha         1 P3I       0.149000
     46 HAS3         3.0190    -2.8880    -4.4670 hn         1 P3I       0.473467
@<TRIPOS>BOND
     1     1     2 1
     2     2     3 ar
     3     2     7 ar
     4     3     4 ar
     5     4     5 ar
     6     5     6 ar
     7     6     7 ar
     8     7     8 1
     9     8     9 1
    10     9    10 1
    11     9    12 1
    12    10    11 1
    13    10    17 2
    14    12    13 2
    15    12    14 1
    16    14    15 1
    17    15    16 2
    18    15    17 1
    19    17    18 1
    20    18    19 1
    21    18    20 1
    22    20    21 2
    23    20    22 2
    24    20    23 1
    25    23    24 ar
    26    23    28 ar
    27    24    25 ar
    28    25    26 ar
    29    26    27 ar
    30    27    28 ar
    31     3    29 1
    32     4    30 1
    33     5    31 1
    34     6    32 1
    35     8    33 1
    36     8    34 1
    37    11    35 1
    38    11    36 1
    39    14    37 1
    40    19    38 1
    41    19    39 1
    42    19    40 1
    43    24    41 1
    44    28    42 1
    45    25    43 1
    46    26    44 1
    47    27    45 1
    48    46    11 1
@<TRIPOS>SUBSTRUCTURE
     1 P3I         1 TEMP              0 ****  ****    0 ROOT
