@<TRIPOS>MOLECULE
molecule
   20    21     1     0     0
SMALL
bcc


@<TRIPOS>ATOM
      1 C0           0.0000     0.0000     0.0000 cc         1 P3J       0.166300
      2 C1           1.3600     0.0000     0.0000 cd         1 P3J      -0.342300
      3 N1          -0.8210    -0.0000    -1.1240 nv         1 P3J      -0.961200
      4 N2          -0.4130    -0.0070     1.2950 na         1 P3J      -0.056600
      5 C3           4.2450     0.1070     0.8870 ca         1 P3J       0.435200
      6 C4           3.1990     0.0010     1.8020 ca         1 P3J      -0.236800
      7 C5           1.7890     0.0000     1.3400 cd         1 P3J       0.396800
      8 N6           5.4960     0.1070     1.2950 nb         1 P3J      -0.692000
      9 C7           5.8120     0.0080     2.5730 ca         1 P3J       0.419200
     10 C8           4.8320    -0.1010     3.5420 ca         1 P3J      -0.258300
     11 C9           3.5010    -0.1060     3.1620 ca         1 P3J      -0.070000
     12 N            0.7230    -0.0100     2.1120 nc         1 P3J      -0.505800
     13 H1           1.9960    -0.0830    -0.8730 ha         1 P3J       0.160000
     14 H11N        -1.1210    -0.8670    -1.5250 hn         1 P3J       0.438300
     15 H12N        -1.1080     0.8660    -1.5350 hn         1 P3J       0.438300
     16 H2          -1.3640    -0.0100     1.6090 hn         1 P3J       0.326700
     17 H9           2.7130    -0.1900     3.9000 ha         1 P3J       0.154000
     18 H7           6.8550     0.0120     2.8660 h4         1 P3J       0.022100
     19 H8           5.1030    -0.1810     4.5880 ha         1 P3J       0.139000
     20 H3           4.0250     0.1900    -0.1710 h4         1 P3J       0.027100
@<TRIPOS>BOND
     1     1     2 2
     2     1     3 1
     3     1     4 1
     4     2     7 1
     5     4    12 1
     6     5     6 ar
     7     5     8 ar
     8     6     7 1
     9     6    11 ar
    10     7    12 2
    11     8     9 ar
    12     9    10 ar
    13    10    11 ar
    14     2    13 1
    15     3    14 1
    16     3    15 1
    17     4    16 1
    18     5    20 1
    19    11    17 1
    20     9    18 1
    21    10    19 1
@<TRIPOS>SUBSTRUCTURE
     1 P3J         1 TEMP              0 ****  ****    0 ROOT
