@<TRIPOS>MOLECULE
molecule
   26    25     1     0     0
SMALL
bcc


@<TRIPOS>ATOM
      1 OTP          0.0000     0.0000     0.0000 o          1 P3P      -0.801800
      2 CP           1.3430     0.0000     0.0000 c          1 P3P       0.879600
      3 OP           1.9460    -0.0010    -1.0460 o          1 P3P      -0.801800
      4 CAP          2.0960     0.0000     1.3040 c3         1 P3P      -0.017500
      5 NP           3.4680    -0.4740     1.0790 nz         1 P3P      -0.787600
      6 CBP          2.1350     1.4210     1.8710 c3         1 P3P      -0.055400
      7 CGP          2.7900     1.4010     3.2530 c3         1 P3P      -0.292600
      8 PDP          2.8360     3.0950     3.9280 p5         1 P3P       1.167100
      9 OEA          1.4700     3.6620     3.9300 o          1 P3P      -0.738300
     10 CEP          3.4800     3.0520     5.6330 c3         1 P3P      -0.289300
     11 OEB          3.7960     4.0100     3.0150 os         1 P3P      -0.610800
     12 P12          3.7910     5.4830     3.6650 p5         1 P3P       1.068900
     13 O15          4.7920     5.5170     4.9240 o          1 P3P      -0.864167
     14 O13          4.2720     6.5560     2.5660 o          1 P3P      -0.864167
     15 O14          2.4200     5.8180     4.1150 o          1 P3P      -0.864167
     16 HAP          1.5990    -0.6560     2.0090 hx         1 P3P       0.088700
     17 HNP1         3.4510    -1.2620     0.4620 hn         1 P3P       0.432133
     18 HNP2         3.8750    -0.7440     1.9520 hn         1 P3P       0.432133
     19 HBP1         2.7070     2.0590     1.2090 hc         1 P3P       0.108200
     20 HBP2         1.1240     1.8030     1.9560 hc         1 P3P       0.108200
     21 HGP1         2.2170     0.7640     3.9160 hc         1 P3P       0.030200
     22 HGP2         3.8000     1.0180     3.1690 hc         1 P3P       0.030200
     23 HEP1         3.0960     2.1760     6.1420 hc         1 P3P       0.070033
     24 HEP2         3.1640     3.9430     6.1610 hc         1 P3P       0.070033
     25 HEP3         4.5620     3.0100     5.6090 hc         1 P3P       0.070033
     26 HP3          4.0110     0.2580     0.6670 hn         1 P3P       0.432133
@<TRIPOS>BOND
     1     1     2 1
     2     2     3 1
     3     2     4 1
     4     4     5 1
     5     4     6 1
     6     4    16 1
     7     5    17 1
     8     5    18 1
     9     6     7 1
    10     6    19 1
    11     6    20 1
    12     7     8 1
    13     7    21 1
    14     7    22 1
    15     8     9 2
    16     8    10 1
    17     8    11 1
    18    10    23 1
    19    10    24 1
    20    10    25 1
    21    11    12 1
    22    12    13 1
    23    12    14 1
    24    12    15 1
    25    26     5 1
@<TRIPOS>SUBSTRUCTURE
     1 P3P         1 TEMP              0 ****  ****    0 ROOT
