@<TRIPOS>MOLECULE
molecule
   26    25     1     0     0
SMALL
bcc


@<TRIPOS>ATOM
      1 O3A          0.0000     0.0000     0.0000 o          1 P3S      -0.878167
      2 PA           1.6110     0.0000     0.0000 p5         1 P3S       1.287700
      3 O1A          2.1460     0.0000     1.5180 o          1 P3S      -0.878167
      4 O2A          2.1040     1.2070    -0.6970 o          1 P3S      -0.878167
      5 NE           2.1570    -1.3390    -0.7730 n2         1 P3S      -0.797700
      6 SD           3.6240    -1.5770    -0.9090 s6         1 P3S       0.786700
      7 OE           4.1520    -0.4290    -1.5600 o          1 P3S      -0.551800
      8 CE           4.2630    -1.8810     0.7610 c3         1 P3S      -0.217300
      9 CG           3.8210    -3.1370    -1.8100 c3         1 P3S      -0.209600
     10 CB           5.3090    -3.4420    -1.9850 c3         1 P3S      -0.074400
     11 CA           5.4760    -4.7590    -2.7450 c3         1 P3S      -0.011500
     12 N            4.8410    -5.8450    -1.9870 nz         1 P3S      -0.787600
     13 C            6.9420    -5.0590    -2.9180 c          1 P3S       0.872600
     14 OT           7.5970    -4.6110    -4.0000 o          1 P3S      -0.801300
     15 O            7.5300    -5.7010    -2.0810 o          1 P3S      -0.801300
     16 HEC1         5.2390    -2.3460     0.6950 h1         1 P3S       0.076700
     17 HEC2         3.5850    -2.5370     1.2930 h1         1 P3S       0.076700
     18 HEC3         4.3470    -0.9400     1.2920 h1         1 P3S       0.076700
     19 HGC1         3.3520    -3.9380    -1.2510 h1         1 P3S       0.065700
     20 HGC2         3.3530    -3.0540    -2.7830 h1         1 P3S       0.065700
     21 HBC1         5.7780    -2.6410    -2.5430 hc         1 P3S       0.084700
     22 HBC2         5.7770    -3.5260    -1.0120 hc         1 P3S       0.084700
     23 HA           5.0080    -4.6750    -3.7190 hx         1 P3S       0.101700
     24 HN1          5.0520    -5.7410    -1.0140 hn         1 P3S       0.435800
     25 HN2          5.1880    -6.7260    -2.3120 hn         1 P3S       0.435800
     26 HN3          3.8490    -5.8080    -2.1180 hn         1 P3S       0.435800
@<TRIPOS>BOND
     1     1     2 1
     2     2     3 1
     3     2     4 1
     4     2     5 1
     5     5     6 2
     6     6     7 2
     7     6     8 1
     8     6     9 1
     9     8    16 1
    10     8    17 1
    11     8    18 1
    12     9    10 1
    13     9    19 1
    14     9    20 1
    15    10    11 1
    16    10    21 1
    17    10    22 1
    18    11    12 1
    19    11    13 1
    20    11    23 1
    21    12    24 1
    22    12    25 1
    23    13    14 1
    24    13    15 1
    25    26    12 1
@<TRIPOS>SUBSTRUCTURE
     1 P3S         1 TEMP              0 ****  ****    0 ROOT
