@<TRIPOS>MOLECULE
P3T
   41    41     1     0     0
SMALL
bcc


@<TRIPOS>ATOM
      1 OAE         1.7360   -0.9840    0.4860 o         1 P3T     -0.923500
      2 PAU         2.9880   -0.3120    0.0000 p5        1 P3T      1.306900
      3 OAF         4.1220   -0.1610    0.9710 o         1 P3T     -0.923500
      4 OAC         3.3470   -0.6040   -1.4340 o         1 P3T     -0.923500
      5 OAP         2.4420    1.3590   -0.1500 os        1 P3T     -0.554200
      6 CAM         1.7110    1.5980   -1.2750 c3        1 P3T      0.246700
      7 CAS         2.2160    2.7960   -2.0450 ca        1 P3T     -0.101600
      8 CAH         3.3280    3.5250   -1.5350 ca        1 P3T      0.400200
      9 NAO         3.8650    4.6000   -2.1160 nb        1 P3T     -0.674000
     10 CAQ         3.3240    5.0230   -3.2920 ca        1 P3T      0.282600
     11 CAA         3.9090    6.2090   -3.9840 c3        1 P3T     -0.125400
     12 CAR         2.2350    4.3480   -3.8850 ca        1 P3T     -0.026200
     13 OAD         1.6890    4.7840   -5.0840 oh        1 P3T     -0.536100
     14 CAT         1.6550    3.2270   -3.2520 ca        1 P3T     -0.111300
     15 CAG         0.5230    2.4860   -3.8960 c3        1 P3T      0.216100
     16 NAN        -0.6500    3.3040   -4.1730 n3        1 P3T     -0.815200
     17 CAL        -1.5120    2.7060   -5.1710 c3        1 P3T      0.168800
     18 CAK        -2.7070    3.5870   -5.5360 c3        1 P3T     -0.079400
     19 CAJ        -3.6100    2.8600   -6.5070 c3        1 P3T     -0.118400
     20 CAI        -4.7940    3.7400   -6.9090 c3        1 P3T      0.142800
     21 NAB        -5.7460    3.1530   -7.8200 n3        1 P3T     -0.907800
     22 HAM1        0.6330    1.8430   -1.0120 h1        1 P3T      0.027700
     23 HAM2        1.7350    0.7010   -1.9700 h1        1 P3T      0.027700
     24 HAH         3.7880    3.1610   -0.5890 h4        1 P3T      0.084100
     25 HAA1        3.0950    6.9200   -4.2690 hc        1 P3T      0.025700
     26 HAA2        4.4380    5.8840   -4.9150 hc        1 P3T      0.025700
     27 HAA3        4.6420    6.7500   -3.3380 hc        1 P3T      0.025700
     28 HOAD        2.4250    5.1000   -5.6240 ho        1 P3T      0.398000
     29 HAG1        0.1820    1.6470   -3.2230 h1        1 P3T      0.051700
     30 HAG2        0.9330    2.0170   -4.8430 h1        1 P3T      0.051700
     31 HNAN       -0.3810    4.2290   -4.4540 hn        1 P3T      0.361800
     32 HAL1       -0.9610    2.4530   -6.1280 h1        1 P3T      0.020700
     33 HAL2       -1.8910    1.7320   -4.7470 h1        1 P3T      0.020700
     34 HAK1       -2.3510    4.5450   -5.9960 hc        1 P3T      0.043700
     35 HAK2       -3.2810    3.8520   -4.6100 hc        1 P3T      0.043700
     36 HAJ1       -3.9810    1.9130   -6.0340 hc        1 P3T      0.037700
     37 HAJ2       -3.0260    2.5680   -7.4190 hc        1 P3T      0.037700
     38 HAI1       -5.3510    4.0430   -5.9770 h1        1 P3T      0.049200
     39 HAI2       -4.3980    4.6800   -7.3870 h1        1 P3T      0.049200
     40 HAB1       -5.2900    2.8690   -8.6660 hn        1 P3T      0.336800
     41 HAB2       -6.1680    2.3410   -7.4100 hn        1 P3T      0.336800
@<TRIPOS>BOND
     1    1    2 1   
     2    2    3 1   
     3    2    4 1   
     4    2    5 1   
     5    5    6 1   
     6    6    7 1   
     7    6   22 1   
     8    6   23 1   
     9    7    8 ar  
    10    7   14 ar  
    11    8    9 ar  
    12    8   24 1   
    13    9   10 ar  
    14   10   11 1   
    15   10   12 ar  
    16   11   25 1   
    17   11   26 1   
    18   11   27 1   
    19   12   13 1   
    20   12   14 ar  
    21   13   28 1   
    22   14   15 1   
    23   15   16 1   
    24   15   29 1   
    25   15   30 1   
    26   16   17 1   
    27   16   31 1   
    28   17   18 1   
    29   17   32 1   
    30   17   33 1   
    31   18   19 1   
    32   18   34 1   
    33   18   35 1   
    34   19   20 1   
    35   19   36 1   
    36   19   37 1   
    37   20   21 1   
    38   20   38 1   
    39   20   39 1   
    40   21   40 1   
    41   21   41 1   
@<TRIPOS>SUBSTRUCTURE
     1 P3T         1 TEMP              0 ****  ****    0 ROOT
