@<TRIPOS>MOLECULE
molecule
   65    68     1     0     0
SMALL
bcc


@<TRIPOS>ATOM
      1 CAP          0.0000     0.0000     0.0000 c3         1 P3U       0.173300
      2 CAN          1.5300     0.0000     0.0000 c3         1 P3U       0.153800
      3 NAU          2.0170     0.0000     1.3860 n7         1 P3U      -0.821200
      4 CAO          1.5300    -1.1810     2.1120 c3         1 P3U       0.153800
      5 CAQ         -0.0000    -1.1810     2.1120 c3         1 P3U       0.173300
      6 NBG         -0.4880    -1.1800     0.7260 nh         1 P3U      -0.703300
      7 CBB         -1.8750    -1.2530     0.6850 ca         1 P3U       0.623200
      8 CAM         -2.5280    -2.3040     1.3190 ca         1 P3U      -0.254300
      9 NAS         -2.5620    -0.3170     0.0480 nb         1 P3U      -0.733000
     10 CAI         -3.8790    -0.3410    -0.0180 ca         1 P3U       0.451200
     11 CAJ         -4.6020    -1.3520     0.5800 ca         1 P3U      -0.271300
     12 CAY         -3.9200    -2.3610     1.2690 cp         1 P3U       0.002000
     13 CAZ         -4.6600    -3.4650     1.9290 cp         1 P3U       0.031000
     14 CAL         -6.0510    -3.5070     1.8700 ca         1 P3U      -0.141000
     15 CAX         -6.7350    -4.5380     2.4850 ca         1 P3U       0.122400
     16 ClH         -8.4690    -4.5920     2.4130 cl         1 P3U      -0.045400
     17 CAK         -3.9650    -4.4660     2.6060 ca         1 P3U      -0.141000
     18 CAW         -4.6590    -5.4910     3.2190 ca         1 P3U       0.122400
     19 ClG         -3.7950    -6.7380     4.0630 cl         1 P3U      -0.045400
     20 CBE         -6.0420    -5.5270     3.1610 ca         1 P3U      -0.305500
     21 SBI         -6.9200    -6.8370     3.9450 sy         1 P3U       1.416200
     22 OAE         -6.0230    -7.4160     4.8830 o          1 P3U      -0.619800
     23 OAF         -8.1890    -6.3090     4.3070 o          1 P3U      -0.619800
     24 NAV         -7.2050    -7.9940     2.7950 nu         1 P3U      -0.736500
     25 CBD         -6.1300    -8.7140     2.2390 cc         1 P3U      -0.103700
     26 CBA         -5.6680    -8.6060     0.9680 cd         1 P3U      -0.066600
     27 CAA         -6.2120    -7.6940    -0.1020 c3         1 P3U      -0.028800
     28 NBH         -4.6250    -9.4680     0.8350 na         1 P3U       0.065400
     29 CAD         -3.8280    -9.6780    -0.3750 c3         1 P3U       0.068600
     30 NAT         -4.4500   -10.1200     2.0630 nd         1 P3U      -0.506800
     31 CBC         -5.3440    -9.6660     2.9030 cc         1 P3U       0.371600
     32 CAR         -5.5050   -10.0960     4.3380 c3         1 P3U      -0.109700
     33 CBF         -6.3280   -11.3840     4.3960 c3         1 P3U      -0.072700
     34 CAC         -6.3860   -11.8890     5.8400 c3         1 P3U      -0.087100
     35 CAB         -7.7470   -11.1040     3.8970 c3         1 P3U      -0.087100
     36 HAP1        -0.3600    -0.0320    -1.0210 h1         1 P3U       0.056450
     37 HAP2        -0.3600     0.8980     0.4880 h1         1 P3U       0.056450
     38 HAN1         1.8910     0.8860    -0.5080 h1         1 P3U       0.041700
     39 HAN2         1.8910    -0.8860    -0.5080 h1         1 P3U       0.041700
     40 HAU          3.0180     0.0040     1.3880 hn         1 P3U       0.357800
     41 HAO1         1.8900    -2.0780     1.6240 h1         1 P3U       0.041700
     42 HAO2         1.8900    -1.1490     3.1340 h1         1 P3U       0.041700
     43 HAQ1        -0.3600    -2.0670     2.6200 h1         1 P3U       0.056450
     44 HAQ2        -0.3600    -0.2950     2.6210 h1         1 P3U       0.056450
     45 HAM         -1.9640    -3.0670     1.8420 ha         1 P3U       0.149000
     46 HAI         -4.4010     0.4440    -0.5510 h4         1 P3U       0.027100
     47 HAJ         -5.6830    -1.3630     0.5200 ha         1 P3U       0.142000
     48 HAL         -6.5980    -2.6990     1.4010 ha         1 P3U       0.155000
     49 HAK         -2.8890    -4.4040     2.7070 ha         1 P3U       0.155000
     50 HAV         -8.1400    -8.1750     2.4890 hn         1 P3U       0.458800
     51 HAA1        -5.5150    -6.8820    -0.2740 hc         1 P3U       0.052700
     52 HAA2        -6.3460    -8.2540    -1.0200 hc         1 P3U       0.052700
     53 HAA3        -7.1650    -7.2900     0.2170 hc         1 P3U       0.052700
     54 HAD1        -4.4610   -10.0720    -1.1610 h1         1 P3U       0.055033
     55 HAD2        -3.4010    -8.7350    -0.6940 h1         1 P3U       0.055033
     56 HAD3        -3.0320   -10.3820    -0.1650 h1         1 P3U       0.055033
     57 HAR1        -4.5280   -10.2720     4.7740 hc         1 P3U       0.078700
     58 HAR2        -6.0130    -9.3180     4.8940 hc         1 P3U       0.078700
     59 HBF         -5.8660   -12.1370     3.7690 hc         1 P3U       0.054700
     60 HAC1        -5.3810   -12.0840     6.1950 hc         1 P3U       0.033533
     61 HAC2        -6.8510   -11.1380     6.4670 hc         1 P3U       0.033533
     62 HAC3        -6.9670   -12.8030     5.8790 hc         1 P3U       0.033533
     63 HAB1        -8.3590   -11.9870     4.0340 hc         1 P3U       0.033533
     64 HAB2        -8.1710   -10.2790     4.4570 hc         1 P3U       0.033533
     65 HAB3        -7.7160   -10.8470     2.8450 hc         1 P3U       0.033533
@<TRIPOS>BOND
     1     1     2 1
     2     1     6 1
     3     2     3 1
     4     3     4 1
     5     4     5 1
     6     5     6 1
     7     6     7 1
     8     7     8 ar
     9     7     9 ar
    10     8    12 ar
    11     9    10 ar
    12    10    11 ar
    13    11    12 ar
    14    12    13 1
    15    13    14 ar
    16    13    17 ar
    17    14    15 ar
    18    15    16 1
    19    15    20 ar
    20    17    18 ar
    21    18    19 1
    22    18    20 ar
    23    20    21 1
    24    21    22 2
    25    21    23 2
    26    21    24 1
    27    24    25 1
    28    25    26 2
    29    25    31 1
    30    26    27 1
    31    26    28 1
    32    28    29 1
    33    28    30 1
    34    30    31 2
    35    31    32 1
    36    32    33 1
    37    33    34 1
    38    33    35 1
    39     1    36 1
    40     1    37 1
    41     2    38 1
    42     2    39 1
    43     3    40 1
    44     4    41 1
    45     4    42 1
    46     5    43 1
    47     5    44 1
    48     8    45 1
    49    10    46 1
    50    11    47 1
    51    14    48 1
    52    17    49 1
    53    24    50 1
    54    27    51 1
    55    27    52 1
    56    27    53 1
    57    29    54 1
    58    29    55 1
    59    29    56 1
    60    32    57 1
    61    32    58 1
    62    33    59 1
    63    34    60 1
    64    34    61 1
    65    34    62 1
    66    35    63 1
    67    35    64 1
    68    35    65 1
@<TRIPOS>SUBSTRUCTURE
     1 P3U         1 TEMP              0 ****  ****    0 ROOT
