@<TRIPOS>MOLECULE
P3Y
   48    51     1     0     0
SMALL
bcc


@<TRIPOS>ATOM
      1 N1           0.0000     0.0000     0.0000 nb         1 P3Y      -0.576000
      2 C2           1.3140     0.0000     0.0000 ca         1 P3Y       0.417200
      3 C3           2.0420     0.0000     1.1930 cp         1 P3Y      -0.192300
      4 C4           1.3560     0.0010     2.4060 ca         1 P3Y       0.006000
      5 C5          -0.0370     0.0020     2.3690 ca         1 P3Y      -0.196100
      6 C6          -0.7020     0.0010     1.1280 ca         1 P3Y       0.228800
      7 C9          -1.0900     0.0040     3.3970 cc         1 P3Y      -0.057400
      8 C10         -2.2740     0.0030     2.7380 cd         1 P3Y      -0.258100
      9 N11         -2.0510     0.0010     1.3890 na         1 P3Y       0.269900
     10 C14         -0.8930     0.0040     4.8660 ca         1 P3Y      -0.050800
     11 C15         -0.2970     1.1020     5.4950 ca         1 P3Y       0.159100
     12 C16         -0.1190     1.0940     6.8680 ca         1 P3Y      -0.212000
     13 C17         -0.5270     0.0040     7.6140 ca         1 P3Y      -0.056000
     14 C18         -1.1160    -1.0840     6.9960 ca         1 P3Y      -0.145000
     15 C19         -1.3060    -1.0870     5.6290 ca         1 P3Y      -0.057000
     16 O1           0.1040     2.1730     4.7610 os         1 P3Y      -0.298900
     17 C24          3.5250    -0.0000     1.1690 cp         1 P3Y      -0.132300
     18 C25          4.2520    -0.0000     2.3580 ca         1 P3Y       0.413200
     19 N26          5.5700    -0.0010     2.3470 nb         1 P3Y      -0.583000
     20 C27          6.2580    -0.0030     1.2240 ca         1 P3Y       0.452200
     21 C28          5.6110    -0.0040    -0.0120 ca         1 P3Y      -0.261900
     22 C29          4.2130    -0.0080    -0.0450 ca         1 P3Y      -0.084000
     23 C33          6.3910    -0.0060    -1.2680 c          1 P3Y       0.612700
     24 O34          7.4130     0.6480    -1.3500 o          1 P3Y      -0.637100
     25 N35          5.9690    -0.7320    -2.3230 n          1 P3Y      -0.157800
     26 C41          6.7950    -0.8180    -3.5290 c3         1 P3Y       0.079300
     27 C45          4.6860    -1.4340    -2.2620 c3         1 P3Y       0.079300
     28 C1           0.7040     3.2590     5.4710 c3         1 P3Y       0.238700
     29 H11A        -0.0040     3.6560     6.1880 h1         1 P3Y      -0.001633
     30 H12          1.5860     2.9060     5.9920 h1         1 P3Y      -0.001633
     31 H13          0.9840     4.0370     4.7710 h1         1 P3Y      -0.001633
     32 H16          0.3420     1.9430     7.3590 ha         1 P3Y       0.122000
     33 H17         -0.3830     0.0010     8.6870 ha         1 P3Y       0.100000
     34 H18         -1.4350    -1.9340     7.5870 ha         1 P3Y       0.106000
     35 H19         -1.7680    -1.9410     5.1470 ha         1 P3Y       0.107000
     36 H10         -3.2490     0.0040     3.2080 h4         1 P3Y       0.147000
     37 H11         -2.7680     0.0000     0.6910 hn         1 P3Y       0.118700
     38 H2           1.8440    -0.0010    -0.9450 h4         1 P3Y      -0.020900
     39 H4           1.8890     0.0010     3.3490 ha         1 P3Y       0.119000
     40 H25          3.7260     0.0020     3.3050 h4         1 P3Y      -0.011900
     41 H27          7.3410    -0.0020     1.2600 h4         1 P3Y      -0.002900
     42 H29          3.6790    -0.0080    -0.9880 ha         1 P3Y       0.137000
     43 H411         6.2730    -1.3940    -4.2840 h1         1 P3Y       0.013700
     44 H412         6.9890     0.1790    -3.9060 h1         1 P3Y       0.013700
     45 H413         7.7340    -1.3030    -3.2900 h1         1 P3Y       0.013700
     46 H451         4.5380    -1.8300    -1.2640 h1         1 P3Y       0.013700
     47 H452         3.8840    -0.7440    -2.4980 h1         1 P3Y       0.013700
     48 H453         4.6850    -2.2470    -2.9770 h1         1 P3Y       0.013700
@<TRIPOS>BOND
     1     1     2 ar  
     2     1     6 ar  
     3     2     3 ar  
     4     2    38 1   
     5     3     4 ar  
     6     3    17 1   
     7     4     5 ar  
     8     4    39 1   
     9     5     6 ar  
    10     5     7 1   
    11     6     9 1   
    12     7     8 2   
    13     7    10 1   
    14     8     9 1   
    15     8    36 1   
    16     9    37 1   
    17    10    11 ar  
    18    10    15 ar  
    19    11    12 ar  
    20    11    16 1   
    21    12    13 ar  
    22    12    32 1   
    23    13    14 ar  
    24    13    33 1   
    25    14    15 ar  
    26    14    34 1   
    27    15    35 1   
    28    16    28 1   
    29    17    18 ar  
    30    17    22 ar  
    31    18    19 ar  
    32    18    40 1   
    33    19    20 ar  
    34    20    21 ar  
    35    20    41 1   
    36    21    22 ar  
    37    21    23 1   
    38    22    42 1   
    39    23    24 2   
    40    23    25 1   
    41    25    26 1   
    42    25    27 1   
    43    26    43 1   
    44    26    44 1   
    45    26    45 1   
    46    27    46 1   
    47    27    47 1   
    48    27    48 1   
    49    28    29 1   
    50    28    30 1   
    51    28    31 1   
@<TRIPOS>SUBSTRUCTURE
     1 P3Y         1 TEMP              0 ****  ****    0 ROOT
