@<TRIPOS>MOLECULE
molecule
   35    37     1     0     0
SMALL
bcc


@<TRIPOS>ATOM
      1 CAA          0.0000     0.0000     0.0000 c3         1 P3Z       0.107700
      2 OAB          5.2320     0.7090     4.9120 oh         1 P3Z      -0.569800
      3 CAC          1.2910     0.0000     2.3760 ca         1 P3Z      -0.172500
      4 CAD          3.4310     0.0010     1.2860 ca         1 P3Z      -0.172500
      5 CAE          1.9200     0.0000     3.6050 ca         1 P3Z      -0.086500
      6 CAF          4.0550     0.0120     2.5180 ca         1 P3Z      -0.086500
      7 CAG          4.6680    -3.9090     6.2740 ca         1 P3Z       0.677900
      8 CAH          3.5220    -2.4240     5.4150 ca         1 P3Z       0.439200
      9 CAI          4.8960    -1.6100     6.5510 ca         1 P3Z       0.439200
     10 CAJ          3.7300     0.7960     7.4800 cx         1 P3Z      -0.195400
     11 CAK          2.7900     1.9240     6.4700 cx         1 P3Z      -0.195400
     12 NAL          3.4280    -3.4670     6.1980 nb         1 P3Z      -0.625500
     13 NAM          5.9910    -3.4330     5.6600 nb         1 P3Z      -0.625500
     14 OAN          1.4290     0.0000     0.0000 os         1 P3Z      -0.292900
     15 CAO          2.0460     0.0010     1.2110 ca         1 P3Z       0.153100
     16 CAP          3.3010     0.0060     3.6770 ca         1 P3Z      -0.193300
     17 CAQ          4.2310    -1.3970     5.4710 ca         1 P3Z      -0.359900
     18 CAR          3.0940     0.7330     6.0380 cx         1 P3Z      -0.024700
     19 CAS          3.9840     0.0190     5.0190 c3         1 P3Z       0.264400
     20 HAA         -0.6050    -0.2850    -0.8520 h1         1 P3Z       0.036367
     21 HAAA        -0.4680    -0.7430     0.6350 h1         1 P3Z       0.036367
     22 HAAB        -0.5150     0.8830     0.3590 h1         1 P3Z       0.036367
     23 HOAB         5.7450     0.1600     4.3420 ho         1 P3Z       0.411000
     24 HAC          0.2290    -0.2100     2.4030 ha         1 P3Z       0.146000
     25 HAD          3.9650     0.0540     0.3450 ha         1 P3Z       0.146000
     26 HAE          1.8030    -0.2830     4.6440 ha         1 P3Z       0.144000
     27 HAF          5.0930    -0.2930     2.5770 ha         1 P3Z       0.144000
     28 HAH          2.5320    -1.9930     5.3200 h4         1 P3Z      -0.028900
     29 HAI          5.5920    -0.8020     6.3590 h4         1 P3Z      -0.028900
     30 HAJ          4.7690     1.0660     7.3310 hc         1 P3Z       0.103700
     31 HAJA         3.3230     0.5830     8.4610 hc         1 P3Z       0.103700
     32 HAK          1.9670     2.4330     6.9560 hc         1 P3Z       0.103700
     33 HAKA         3.5760     2.3820     5.8820 hc         1 P3Z       0.103700
     34 HAR          2.3270    -0.0140     6.2060 hc         1 P3Z       0.031700
     35 HAG          5.0390    -4.7270     6.8800 h5         1 P3Z       0.030100
@<TRIPOS>BOND
     1     1    14 1
     2     1    20 1
     3     1    21 1
     4     1    22 1
     5     2    19 1
     6     2    23 1
     7    15     3 ar
     8     3     5 ar
     9     3    24 1
    10     4     6 ar
    11     4    15 ar
    12     4    25 1
    13    16     5 ar
    14     5    26 1
    15     6    16 ar
    16     6    27 1
    17    12     7 ar
    18    13     7 ar
    19     7    35 1
    20    17     8 ar
    21     8    12 ar
    22     8    28 1
    23    17     9 ar
    24     9    13 ar
    25     9    29 1
    26    11    10 1
    27    18    10 1
    28    10    30 1
    29    10    31 1
    30    11    18 1
    31    11    32 1
    32    11    33 1
    33    14    15 1
    34    16    19 1
    35    19    17 1
    36    18    19 1
    37    18    34 1
@<TRIPOS>SUBSTRUCTURE
     1 P3Z         1 TEMP              0 ****  ****    0 ROOT
