@<TRIPOS>MOLECULE
P3Z
   35    37     1     0     0
SMALL
bcc


@<TRIPOS>ATOM
      1 CAA        -0.3520   -0.3780    0.1330 c3        1 P3Z      0.112700
      2 OAB         5.4130    0.4560    4.4890 oh        1 P3Z     -0.593800
      3 CAC         1.1530   -0.4490    2.5000 ca        1 P3Z     -0.183000
      4 CAD         2.9600    0.6310    1.2700 ca        1 P3Z     -0.183000
      5 CAE         1.9560   -0.4630    3.6380 ca        1 P3Z     -0.077000
      6 CAF         3.7450    0.6090    2.4160 ca        1 P3Z     -0.077000
      7 CAG         4.3090   -3.8800    6.3700 ca        1 P3Z      0.628900
      8 CAH         5.1420   -2.2570    4.9740 ca        1 P3Z      0.439200
      9 CAI         3.2580   -1.8360    6.4030 ca        1 P3Z      0.439200
     10 CAJ         4.2620    1.4630    7.0940 cx        1 P3Z     -0.124400
     11 CAK         4.0080    2.4290    5.9760 cx        1 P3Z     -0.124400
     12 NAL         5.2310   -3.5200    5.4350 nb        1 P3Z     -0.693000
     13 NAM         3.3210   -3.0960    6.8800 nb        1 P3Z     -0.693000
     14 OAN         0.9590    0.1720    0.1260 os        1 P3Z     -0.325900
     15 CAO         1.6580    0.1000    1.3150 ca        1 P3Z      0.130100
     16 CAP         3.2510    0.0620    3.6080 ca        1 P3Z     -0.115300
     17 CAQ         4.1580   -1.3490    5.4310 ca        1 P3Z     -0.345900
     18 CAR         3.4950    1.0170    5.8770 cx        1 P3Z     -0.158700
     19 CAS         4.0930    0.0500    4.8670 c3        1 P3Z      0.299400
     20 HAA        -1.0050    0.1680    0.8570 h1        1 P3Z      0.045033
     21 HAAA       -0.7080   -0.2180   -0.9170 h1        1 P3Z      0.045033
     22 HAAB       -0.3230   -1.4680    0.3770 h1        1 P3Z      0.045033
     23 HOAB        5.9330    0.4990    5.3000 ho        1 P3Z      0.408000
     24 HAC         0.1390   -0.8680    2.5450 ha        1 P3Z      0.145000
     25 HAD         3.3400    1.0560    0.3300 ha        1 P3Z      0.145000
     26 HAE         1.5630   -0.9000    4.5700 ha        1 P3Z      0.143000
     27 HAF         4.7660    1.0230    2.3860 ha        1 P3Z      0.143000
     28 HAH         5.8800   -1.9470    4.2100 h4        1 P3Z      0.037600
     29 HAI         2.4600   -1.1980    6.8220 h4        1 P3Z      0.037600
     30 HAJ         3.7160    1.5820    8.0460 hc        1 P3Z      0.076450
     31 HAJA        5.2880    1.0870    7.2590 hc        1 P3Z      0.076450
     32 HAK         4.8500    2.7310    5.3270 hc        1 P3Z      0.076450
     33 HAKA        3.2820    3.2480    6.1220 hc        1 P3Z      0.076450
     34 HAR         2.4020    0.8580    5.9820 hc        1 P3Z      0.089700
     35 HAG         4.3700   -4.9180    6.7540 h5        1 P3Z      0.056100
@<TRIPOS>BOND
     1    1   14 1   
     2    1   20 1   
     3    1   21 1   
     4    1   22 1   
     5    2   19 1   
     6    2   23 1   
     7    3    5 ar  
     8    3   15 ar  
     9    3   24 1   
    10    4    6 ar  
    11    4   15 ar  
    12    4   25 1   
    13    5   16 ar  
    14    5   26 1   
    15    6   16 ar  
    16    6   27 1   
    17    7   12 ar  
    18    7   13 ar  
    19    7   35 1   
    20    8   12 ar  
    21    8   17 ar  
    22    8   28 1   
    23    9   13 ar  
    24    9   17 ar  
    25    9   29 1   
    26   10   11 1   
    27   10   18 1   
    28   10   30 1   
    29   10   31 1   
    30   11   18 1   
    31   11   32 1   
    32   11   33 1   
    33   14   15 1   
    34   16   19 1   
    35   17   19 1   
    36   18   19 1   
    37   18   34 1   
@<TRIPOS>SUBSTRUCTURE
     1 P3Z         1 TEMP              0 ****  ****    0 ROOT
