@<TRIPOS>MOLECULE
P40
   61    65     1     0     0
SMALL
bcc


@<TRIPOS>ATOM
      1 C1           0.0000     0.0000     0.0000 c3         1 P40       0.153800
      2 C2           1.5300     0.0000     0.0000 c3         1 P40       0.142800
      3 C7           3.9260    -0.1890     2.9010 c3         1 P40       0.215400
      4 C8           3.4690     0.0000     1.4520 c3         1 P40       0.106300
      5 C9          -5.8700     0.3900    -2.3310 ca         1 P40      -0.027000
      6 C10         -6.3020     0.6060    -3.6270 cp         1 P40      -0.069000
      7 C11         -5.3760     0.7800    -4.6690 ca         1 P40      -0.059000
      8 C12         -4.0390     0.7390    -4.4300 ca         1 P40      -0.176300
      9 C13         -7.7560     0.6550    -3.9190 cp         1 P40      -0.043000
     10 C14         -8.5930    -0.3570    -3.4610 ca         1 P40      -0.023000
     11 C15         -9.9580    -0.3040    -3.7390 ca         1 P40      -0.164600
     12 C16        -10.4760     0.7640    -4.4750 ca         1 P40      -0.083000
     13 C19        -10.8550    -1.3750    -3.2550 c          1 P40       0.598700
     14 C20        -13.0640    -2.3830    -3.0450 cx         1 P40      -0.045300
     15 C21        -14.5390    -2.0330    -2.8440 cx         1 P40      -0.094900
     16 C22        -14.1150    -2.9170    -4.0200 cx         1 P40      -0.094900
     17 N29         -2.6900     0.0990    -0.5930 nb         1 P40      -0.681000
     18 C30         -3.9940     0.1270    -0.7670 ca         1 P40       0.514200
     19 N3           2.0190    -0.2270     1.3670 n3         1 P40      -0.530600
     20 C4           1.6750    -1.5790     1.8310 c3         1 P40       0.106300
     21 C5           2.1510    -1.7530     3.2760 c3         1 P40       0.215400
     22 O6           3.5560    -1.4970     3.3440 os         1 P40      -0.411600
     23 C17         -9.6390     1.7640    -4.9270 ca         1 P40      -0.110000
     24 C18         -8.2870     1.7180    -4.6490 ca         1 P40      -0.054300
     25 C23         -7.3810     2.8180    -5.1410 c3         1 P40       0.045200
     26 O24        -10.4020    -2.3030    -2.6140 o          1 P40      -0.648100
     27 C25         -4.4950     0.3450    -2.0650 ca         1 P40      -0.341600
     28 C26         -3.5680     0.5210    -3.1260 ca         1 P40       0.459600
     29 N27         -2.2580     0.4740    -2.8480 nb         1 P40      -0.709000
     30 C28         -1.8480     0.2680    -1.6120 ca         1 P40       0.724900
     31 N31         -0.4890     0.2260    -1.3620 nu         1 P40      -0.484900
     32 N32        -12.1740    -1.3220    -3.5240 ns         1 P40      -0.143900
     33 H9          -6.5870     0.2560    -1.5300 ha         1 P40       0.114000
     34 H11         -5.7330     0.9490    -5.6780 ha         1 P40       0.112000
     35 H12         -3.3380     0.8750    -5.2440 ha         1 P40       0.120000
     36 H14         -8.1860    -1.1830    -2.8900 ha         1 P40       0.133000
     37 H16        -11.5360     0.8060    -4.6940 ha         1 P40       0.100000
     38 H17        -10.0460     2.5910    -5.4960 ha         1 P40       0.109000
     39 H20        -12.6740    -3.1190    -2.3520 h1         1 P40       0.097700
     40 H30         -4.6680    -0.0120     0.0700 h4         1 P40      -0.015900
     41 HN31         0.1610     0.3580    -2.1120 hn         1 P40       0.301800
     42 HN32       -12.5490    -0.5500    -4.0390 hn         1 P40       0.174500
     43 H31         -0.3610     0.7890     0.6490 h1         1 P40       0.033200
     44 H41         -0.3610    -0.9560     0.3590 h1         1 P40       0.033200
     45 H52          1.8910    -0.7890    -0.6490 h1         1 P40       0.012200
     46 H62          1.8910     0.9560    -0.3590 h1         1 P40       0.012200
     47 H74          2.1640    -2.3120     1.2000 h1         1 P40       0.019700
     48 H84          0.6010    -1.7140     1.7860 h1         1 P40       0.019700
     49 H95          1.6260    -1.0530     3.9150 h1         1 P40       0.013450
     50 H05          1.9530    -2.7670     3.6020 h1         1 P40       0.013450
     51 H17A         5.0020    -0.0800     2.9570 h1         1 P40       0.013450
     52 H27          3.4490     0.5530     3.5290 h1         1 P40       0.013450
     53 H38          3.6950     1.0100     1.1310 h1         1 P40       0.019700
     54 H48          3.9830    -0.7110     0.8160 h1         1 P40       0.019700
     55 H221       -14.8180    -1.0180    -3.1000 hc         1 P40       0.047950
     56 H321       -15.0350    -2.5450    -2.0290 hc         1 P40       0.047950
     57 H422       -14.1340    -2.4420    -4.9930 hc         1 P40       0.047950
     58 H522       -14.3520    -3.9700    -3.9220 hc         1 P40       0.047950
     59 H623        -7.9620     3.7180    -5.3060 hc         1 P40       0.015700
     60 H723        -6.9160     2.5140    -6.0710 hc         1 P40       0.015700
     61 H823        -6.6150     3.0140    -4.4010 hc         1 P40       0.015700
@<TRIPOS>BOND
     1     1     2 1   
     2     1    31 1   
     3     1    43 1   
     4     1    44 1   
     5     2    19 1   
     6     2    45 1   
     7     2    46 1   
     8     3     4 1   
     9     3    22 1   
    10     3    51 1   
    11     3    52 1   
    12     4    19 1   
    13     4    53 1   
    14     4    54 1   
    15     5     6 ar  
    16     5    27 ar  
    17     5    33 1   
    18     6     7 ar  
    19     6     9 1   
    20     7     8 ar  
    21     7    34 1   
    22     8    28 ar  
    23     8    35 1   
    24     9    10 ar  
    25     9    24 ar  
    26    10    11 ar  
    27    10    36 1   
    28    11    12 ar  
    29    11    13 1   
    30    12    23 ar  
    31    12    37 1   
    32    13    26 2   
    33    13    32 1   
    34    14    15 1   
    35    14    16 1   
    36    14    32 1   
    37    14    39 1   
    38    15    16 1   
    39    15    55 1   
    40    15    56 1   
    41    16    57 1   
    42    16    58 1   
    43    17    18 ar  
    44    17    30 ar  
    45    18    27 ar  
    46    18    40 1   
    47    19    20 1   
    48    20    21 1   
    49    20    47 1   
    50    20    48 1   
    51    21    22 1   
    52    21    49 1   
    53    21    50 1   
    54    23    24 ar  
    55    23    38 1   
    56    24    25 1   
    57    25    59 1   
    58    25    60 1   
    59    25    61 1   
    60    27    28 ar  
    61    28    29 ar  
    62    29    30 ar  
    63    30    31 1   
    64    31    41 1   
    65    32    42 1   
@<TRIPOS>SUBSTRUCTURE
     1 P40         1 TEMP              0 ****  ****    0 ROOT
