@<TRIPOS>MOLECULE
P41
   41    43     1     0     0
SMALL
bcc


@<TRIPOS>ATOM
      1 C13         0.2230    0.0500   -0.9530 c2        1 P41     -0.359000
      2 C18         2.9080   -2.6770   -5.7890 c3        1 P41     -0.283000
      3 C17         4.7880    1.7200   -3.1630 c3        1 P41     -0.257000
      4 C16         2.1780    0.1770   -2.4600 c2        1 P41     -0.085000
      5 C15        -1.6570    0.2000    2.1250 c2        1 P41     -0.025000
      6 C11         1.1810    1.1490   -0.6960 c2        1 P41      0.112000
      7 C12        -3.9240    2.0980    4.5680 c3        1 P41      0.040000
      8 C1         -2.3640    4.3490    3.7510 c2        1 P41     -0.005000
      9 C2         -3.4990    4.5530    4.4800 c2        1 P41     -0.242000
     10 C3         -1.9510    3.0230    3.3750 c2        1 P41     -0.167000
     11 C4         -0.1690    1.8970    1.1720 c1        1 P41     -0.128000
     12 C5          0.9610    2.0170    0.3600 c2        1 P41     -0.209000
     13 C6         -4.2060    3.4720    5.0540 c1        1 P41     -0.064000
     14 C7         -0.8670   -0.1220   -0.1800 c2        1 P41     -0.017000
     15 C8         -2.0080   -1.6730    3.3650 c1        1 P41      0.075000
     16 C9         -1.1850    0.8640    0.8950 c3        1 P41     -0.055000
     17 C10        -2.6520    1.9240    3.7560 c2        1 P41     -0.058000
     18 C14        -2.2700    0.6050    3.3000 c2        1 P41     -0.049000
     19 N20        -2.4740   -0.5910    4.0510 n3        1 P41     -0.259000
     20 N21         2.2640    1.1780   -1.5830 n2        1 P41     -0.175000
     21 N22         3.1080   -0.0900   -3.4900 nh        1 P41     -0.143000
     22 O23        -1.5080   -1.2070    2.1800 os        1 P41     -0.149000
     23 S25         0.7710   -0.8780   -2.2780 ss        1 P41      0.344000
     24 H18         2.9020   -3.1790   -4.7960 hc        1 P41      0.071500
     25 H18A        1.9670   -2.0990   -5.9230 hc        1 P41      0.071500
     26 H18B        2.9810   -3.4480   -6.5870 hc        1 P41      0.071500
     27 H17         5.0250    1.5250   -2.0840 hc        1 P41      0.112667
     28 H17A        3.7820   -1.9930   -5.8580 hc        1 P41      0.071500
     29 H17B        5.7350    1.9900   -3.6940 hc        1 P41      0.112667
     30 H19         4.0910    2.5970   -3.2060 hc        1 P41      0.112667
     31 H1         -1.7180    5.1850    3.4330 ha        1 P41      0.143000
     32 H2         -3.8390    5.5710    4.7320 ha        1 P41      0.156000
     33 H3         -1.0400    2.9170    2.7340 ha        1 P41      0.223000
     34 H4         -2.0560    1.4950    0.4900 hc        1 P41      0.183000
     35 H5          1.6890    2.8140    0.5860 ha        1 P41      0.169000
     36 H6         -4.7840    1.9180    3.8290 h1        1 P41      0.146000
     37 H7         -1.5540   -0.9760   -0.3010 ha        1 P41      0.165000
     38 H8         -2.8910   -0.5880    4.9510 hn        1 P41      0.280000
     39 HN22        2.8710   -0.8910   -4.0510 hn        1 P41      0.271000
     40 F24        -4.0500    1.1670    5.5900 f         1 P41     -0.143000
     41 C19         4.2180    0.5380   -3.8160 c1        1 P41     -0.059000
@<TRIPOS>BOND
     1    1    6 1   
     2    1   14 1   
     3    1   23 1   
     4    2   24 1   
     5    2   25 1   
     6    2   26 1   
     7    2   28 1   
     8    3   27 1   
     9    3   29 1   
    10    3   30 1   
    11    3   41 1   
    12    4   20 1   
    13    4   21 1   
    14    4   23 1   
    15    5   16 1   
    16    5   18 1   
    17    5   22 1   
    18    6   12 1   
    19    6   20 1   
    20    7   13 1   
    21    7   17 1   
    22    7   36 1   
    23    7   40 1   
    24    8    9 1   
    25    8   10 1   
    26    8   31 1   
    27    9   13 1   
    28    9   32 1   
    29   10   17 1   
    30   10   33 1   
    31   11   12 1   
    32   11   16 1   
    33   12   35 1   
    34   14   16 1   
    35   14   37 1   
    36   15   19 1   
    37   15   22 1   
    38   16   34 1   
    39   17   18 1   
    40   18   19 1   
    41   19   38 1   
    42   21   39 1   
    43   21   41 1   
@<TRIPOS>SUBSTRUCTURE
     1 P41         1 TEMP              0 ****  ****    0 ROOT
