@<TRIPOS>MOLECULE
P42
  140   139     1     0     0
SMALL
bcc


@<TRIPOS>ATOM
      1 C4           0.0000     0.0000     0.0000 c3         1 P42       0.286400
      2 C5           1.5310     0.0000     0.0000 c3         1 P42      -0.041200
      3 C6           1.4240    -2.3890    -0.1890 c3         1 P42       0.004767
      4 C7           3.4820    -1.3260     0.4310 c3         1 P42       0.004767
      5 C8           1.6420    -1.3670     1.9700 c3         1 P42       0.004767
      6 CBX         18.0450    10.1850    -2.4690 c3         1 P42       0.005900
      7 CBV         16.8970    10.3500    -1.4700 c3         1 P42      -0.028400
      8 CBS         15.9170     9.1850    -1.6250 c3         1 P42      -0.030400
      9 CBH         14.7690     9.3490    -0.6270 c3         1 P42      -0.029400
     10 CAQ         13.7880     8.1840    -0.7810 c3         1 P42      -0.029400
     11 CAP         12.6400     8.3480     0.2180 c3         1 P42      -0.029400
     12 CAO         11.6600     7.1830     0.0630 c3         1 P42      -0.029400
     13 CAN         10.5130     7.3480     1.0610 c3         1 P42      -0.029400
     14 CAM          9.5320     6.1830     0.9080 c3         1 P42      -0.029400
     15 CAL          8.3850     6.3470     1.9060 c3         1 P42      -0.029400
     16 CAK          7.4050     5.1830     1.7520 c3         1 P42      -0.028400
     17 CAJ          6.2570     5.3460     2.7500 c3         1 P42      -0.029400
     18 CAI          5.2760     4.1820     2.5960 c3         1 P42      -0.028400
     19 CAH          4.1280     4.3460     3.5940 c3         1 P42      -0.030400
     20 CAG          3.1480     3.1820     3.4400 c3         1 P42      -0.024400
     21 CAE          1.0200     2.1810     4.2840 c3         1 P42      -0.036400
     22 CAD         -0.1280     2.3450     5.2820 c3         1 P42       0.387900
     23 OAA          0.3800     2.2380     6.6140 oh         1 P42      -0.610800
     24 CAB         -2.3190     1.5130     5.7840 c3         1 P42       0.217400
     25 CBE         -3.2830     0.3660     5.4710 c3         1 P42       0.157100
     26 CBK         -3.4820     0.2660     3.9580 c3         1 P42       0.284400
     27 OBL         -2.2110     0.1320     3.3180 os         1 P42      -0.473200
     28 PBM         -2.0410    -0.0000     1.7220 p5         1 P42       0.910800
     29 OBF         -2.6870    -1.3210     1.2440 o          1 P42      -0.643000
     30 OBU         -2.7380     1.1930     1.0310 o          1 P42      -0.643000
     31 OBN         -0.4770     0.0000     1.3470 os         1 P42      -0.519200
     32 OBD         -2.7390    -0.8600     5.9630 os         1 P42      -0.383600
     33 CBC         -3.7250    -1.8180     6.3530 c3         1 P42       0.396900
     34 OBJ         -4.3910    -2.3160     5.1910 oh         1 P42      -0.586800
     35 CBB         -3.0470    -2.9770     7.0870 c3         1 P42      -0.047400
     36 CBA         -4.1130    -3.9400     7.6130 c3         1 P42      -0.028400
     37 CAZ         -3.4360    -5.0990     8.3470 c3         1 P42      -0.026400
     38 CAY         -4.5010    -6.0630     8.8730 c3         1 P42      -0.029400
     39 CAX         -3.8240    -7.2210     9.6080 c3         1 P42      -0.028400
     40 CAW         -4.8900    -8.1850    10.1330 c3         1 P42      -0.029400
     41 CAV         -4.2130    -9.3430    10.8680 c3         1 P42      -0.029400
     42 CAU         -5.2790   -10.3070    11.3940 c3         1 P42      -0.029400
     43 CAT         -4.6020   -11.4660    12.1270 c3         1 P42      -0.029400
     44 CAS         -5.6680   -12.4290    12.6540 c3         1 P42      -0.029400
     45 CAR         -4.9900   -13.5880    13.3880 c3         1 P42      -0.029400
     46 CBI         -6.0560   -14.5510    13.9130 c3         1 P42      -0.029400
     47 CBT         -5.3780   -15.7100    14.6480 c3         1 P42      -0.029400
     48 CBW         -6.4440   -16.6730    15.1730 c3         1 P42      -0.028400
     49 CBY         -5.7670   -17.8320    15.9080 c3         1 P42       0.005900
     50 H4          -0.3610     0.8850    -0.5110 h1         1 P42       0.019700
     51 H4A         -0.3610    -0.8840    -0.5110 h1         1 P42       0.019700
     52 H5           1.8920     0.8210     0.6070 hx         1 P42       0.063700
     53 H5A          1.8920     0.1150    -1.0150 hx         1 P42       0.063700
     54 H6           1.9990    -3.2890    -0.0090 hx         1 P42       0.072478
     55 H6A          0.4170    -2.5220     0.1870 hx         1 P42       0.072478
     56 H6B          1.3890    -2.1900    -1.2540 hx         1 P42       0.072478
     57 H7           3.9210    -0.4950     0.9700 hx         1 P42       0.072478
     58 H7A          3.7950    -1.2900    -0.6060 hx         1 P42       0.072478
     59 H7B          3.8110    -2.2580     0.8750 hx         1 P42       0.072478
     60 H8           0.6590    -1.8150     2.0520 hx         1 P42       0.072478
     61 H8A          2.3550    -1.9520     2.5380 hx         1 P42       0.072478
     62 H8B          1.6120    -0.3570     2.3600 hx         1 P42       0.072478
     63 HBX         18.5640     9.2550    -2.2710 hc         1 P42       0.000367
     64 HBXA        17.6470    10.1700    -3.4760 hc         1 P42       0.000367
     65 HBV         16.3820    11.2830    -1.6630 hc         1 P42       0.012200
     66 HBS         15.5210     9.1780    -2.6330 hc         1 P42       0.014700
     67 HBSA        16.4320     8.2510    -1.4330 hc         1 P42       0.014700
     68 HBH         15.1650     9.3560     0.3810 hc         1 P42       0.014700
     69 HBHA        14.2540    10.2820    -0.8190 hc         1 P42       0.014700
     70 HAQ         13.3920     8.1770    -1.7890 hc         1 P42       0.014200
     71 HAQA        14.3030     7.2510    -0.5890 hc         1 P42       0.014200
     72 HAP         12.1250     9.2820     0.0260 hc         1 P42       0.015200
     73 HAPA        13.0370     8.3550     1.2260 hc         1 P42       0.015200
     74 HAO         12.1750     6.2500     0.2550 hc         1 P42       0.014200
     75 HAOA        11.2640     7.1760    -0.9450 hc         1 P42       0.014200
     76 HAN          9.9970     8.2810     0.8680 hc         1 P42       0.015700
     77 HANA        10.9090     7.3560     2.0690 hc         1 P42       0.015700
     78 HAM          9.1360     6.1740    -0.1000 hc         1 P42       0.013200
     79 HAL          7.8700     7.2810     1.7140 hc         1 P42       0.016200
     80 HAK          7.0080     5.1760     0.7440 hc         1 P42       0.012200
     81 HAKA         7.9200     4.2500     1.9440 hc         1 P42       0.012200
     82 HAJ          5.7410     6.2800     2.5580 hc         1 P42       0.017200
     83 HAJA         6.6530     5.3540     3.7580 hc         1 P42       0.017200
     84 HAI          5.7910     3.2480     2.7880 hc         1 P42       0.008700
     85 HAIA         4.8800     4.1750     1.5880 hc         1 P42       0.008700
     86 HAH          4.5250     4.3530     4.6020 hc         1 P42       0.019200
     87 HAG          3.6630     2.2480     3.6330 hc         1 P42       0.004700
     88 HAF          1.4850     4.2790     4.2450 hc         1 P42       0.019700
     89 HAFA         2.3970     3.3530     5.4460 hc         1 P42       0.019700
     90 HAE          0.6240     2.1740     3.2750 hc         1 P42       0.028700
     91 HAEA         1.5350     1.2480     4.4760 hc         1 P42       0.028700
     92 HAD         -0.5880     3.3170     5.1480 h2         1 P42      -0.021300
     93 HOAA         0.1060     2.9880     7.1160 ho         1 P42       0.385000
     94 HAB         -2.1090     1.5290     6.8460 h1         1 P42      -0.014300
     95 HABA        -2.7700     2.4540     5.4910 h1         1 P42      -0.014300
     96 HBE         -4.2360     0.5560     5.9490 h1         1 P42      -0.003300
     97 HBK         -3.9750     1.1610     3.5980 h1         1 P42       0.000200
     98 HBKA        -4.0930    -0.5990     3.7300 h1         1 P42       0.000200
     99 HBC         -4.4460    -1.3470     7.0100 h2         1 P42      -0.030300
    100 HOBJ        -5.3230    -2.3030     5.3330 ho         1 P42       0.384000
    101 HBB         -2.4690    -2.5900     7.9170 hc         1 P42       0.029700
    102 HBBA        -2.3910    -3.5030     6.4040 hc         1 P42       0.029700
    103 HBA         -4.7690    -3.4140     8.2960 hc         1 P42       0.014700
    104 HAZ         -2.8580    -4.7120     9.1780 hc         1 P42       0.014700
    105 HAY         -5.1580    -5.5370     9.5550 hc         1 P42       0.014200
    106 HAYA        -5.0790    -6.4500     8.0430 hc         1 P42       0.014200
    107 HAX         -3.1670    -7.7470     8.9250 hc         1 P42       0.014200
    108 HAXA        -3.2460    -6.8330    10.4380 hc         1 P42       0.014200
    109 HAW         -5.4680    -8.5730     9.3030 hc         1 P42       0.014700
    110 HAWA        -5.5470    -7.6600    10.8160 hc         1 P42       0.014700
    111 HAV         -3.5560    -9.8690    10.1860 hc         1 P42       0.013700
    112 HAVA        -3.6360    -8.9560    11.6990 hc         1 P42       0.013700
    113 HAU         -5.9360    -9.7810    12.0770 hc         1 P42       0.014700
    114 HAUA        -5.8570   -10.6940    10.5630 hc         1 P42       0.014700
    115 HAT         -3.9460   -11.9920    11.4440 hc         1 P42       0.014200
    116 HATA        -4.0230   -11.0790    12.9580 hc         1 P42       0.014200
    117 HAS         -6.2460   -12.8160    11.8230 hc         1 P42       0.014700
    118 HAR         -4.3340   -14.1130    12.7040 hc         1 P42       0.014700
    119 HBI         -6.6330   -14.9390    13.0830 hc         1 P42       0.014700
    120 HBIA        -6.7130   -14.0260    14.5960 hc         1 P42       0.014700
    121 HBT         -4.8010   -15.3220    15.4790 hc         1 P42       0.014700
    122 HBTA        -4.7210   -16.2350    13.9660 hc         1 P42       0.014700
    123 HBW         -7.0220   -17.0610    14.3430 hc         1 P42       0.011700
    124 HBY         -6.5200   -18.5270    16.2590 hc         1 P42       0.000033
    125 HBYA        -5.2090   -17.4460    16.7530 hc         1 P42       0.000033
    126 N            2.0200    -1.2710     0.5530 n4         1 P42       0.066200
    127 H77         18.7350    11.0140    -2.3650 hc         1 P42       0.000367
    128 H78         17.2930    10.3570    -0.4620 hc         1 P42       0.012200
    129 H79         10.0480     5.2500     1.1010 hc         1 P42       0.013200
    130 H80          8.7810     6.3550     2.9140 hc         1 P42       0.016200
    131 H81          3.6130     5.2790     3.4020 hc         1 P42       0.019200
    132 H82          2.7520     3.1740     2.4320 hc         1 P42       0.004700
    133 H83         -4.6920    -4.3270     6.7830 hc         1 P42       0.014700
    134 H84         -2.7790    -5.6240     7.6640 hc         1 P42       0.014700
    135 H85         -6.3240   -11.9030    13.3370 hc         1 P42       0.014700
    136 H86         -4.4120   -13.2000    14.2180 hc         1 P42       0.014700
    137 H87         -7.1010   -16.1480    15.8560 hc         1 P42       0.011700
    138 H88         -5.0910   -18.3420    15.2320 hc         1 P42       0.000033
    139 OAC         -1.1020     1.3230     5.0600 os         1 P42      -0.354600
    140 CAF          2.0000     3.3460     4.4380 c3         1 P42      -0.030400
@<TRIPOS>BOND
     1     1     2 1   
     2     1    31 1   
     3     1    50 1   
     4     1    51 1   
     5     2    52 1   
     6     2    53 1   
     7     2   126 1   
     8     3    54 1   
     9     3    55 1   
    10     3    56 1   
    11     3   126 1   
    12     4    57 1   
    13     4    58 1   
    14     4    59 1   
    15     4   126 1   
    16     5    60 1   
    17     5    61 1   
    18     5    62 1   
    19     5   126 1   
    20     6     7 1   
    21     6    63 1   
    22     6    64 1   
    23     6   127 1   
    24     7     8 1   
    25     7    65 1   
    26     7   128 1   
    27     8     9 1   
    28     8    66 1   
    29     8    67 1   
    30     9    10 1   
    31     9    68 1   
    32     9    69 1   
    33    10    11 1   
    34    10    70 1   
    35    10    71 1   
    36    11    12 1   
    37    11    72 1   
    38    11    73 1   
    39    12    13 1   
    40    12    74 1   
    41    12    75 1   
    42    13    14 1   
    43    13    76 1   
    44    13    77 1   
    45    14    15 1   
    46    14    78 1   
    47    14   129 1   
    48    15    16 1   
    49    15    79 1   
    50    15   130 1   
    51    16    17 1   
    52    16    80 1   
    53    16    81 1   
    54    17    18 1   
    55    17    82 1   
    56    17    83 1   
    57    18    19 1   
    58    18    84 1   
    59    18    85 1   
    60    19    20 1   
    61    19    86 1   
    62    19   131 1   
    63    20    87 1   
    64    20   132 1   
    65    20   140 1   
    66    21    22 1   
    67    21    90 1   
    68    21    91 1   
    69    21   140 1   
    70    22    23 1   
    71    22    92 1   
    72    22   139 1   
    73    23    93 1   
    74    24    25 1   
    75    24    94 1   
    76    24    95 1   
    77    24   139 1   
    78    25    26 1   
    79    25    32 1   
    80    25    96 1   
    81    26    27 1   
    82    26    97 1   
    83    26    98 1   
    84    27    28 1   
    85    28    29 1   
    86    28    30 1   
    87    28    31 1   
    88    32    33 1   
    89    33    34 1   
    90    33    35 1   
    91    33    99 1   
    92    34   100 1   
    93    35    36 1   
    94    35   101 1   
    95    35   102 1   
    96    36    37 1   
    97    36   103 1   
    98    36   133 1   
    99    37    38 1   
   100    37   104 1   
   101    37   134 1   
   102    38    39 1   
   103    38   105 1   
   104    38   106 1   
   105    39    40 1   
   106    39   107 1   
   107    39   108 1   
   108    40    41 1   
   109    40   109 1   
   110    40   110 1   
   111    41    42 1   
   112    41   111 1   
   113    41   112 1   
   114    42    43 1   
   115    42   113 1   
   116    42   114 1   
   117    43    44 1   
   118    43   115 1   
   119    43   116 1   
   120    44    45 1   
   121    44   117 1   
   122    44   135 1   
   123    45    46 1   
   124    45   118 1   
   125    45   136 1   
   126    46    47 1   
   127    46   119 1   
   128    46   120 1   
   129    47    48 1   
   130    47   121 1   
   131    47   122 1   
   132    48    49 1   
   133    48   123 1   
   134    48   137 1   
   135    49   124 1   
   136    49   125 1   
   137    49   138 1   
   138    88   140 1   
   139    89   140 1   
@<TRIPOS>SUBSTRUCTURE
     1 P42         1 TEMP              0 ****  ****    0 ROOT
