@<TRIPOS>MOLECULE
molecule
  140   139     1     0     0
SMALL
bcc


@<TRIPOS>ATOM
      1 C4           0.0000     0.0000     0.0000 c3         1 P42       0.200400
      2 C5           1.5310     0.0000     0.0000 c3         1 P42       0.093800
      3 C6           1.4240    -2.3890    -0.1890 c3         1 P42       0.094767
      4 C7           3.4820    -1.3260     0.4310 c3         1 P42       0.094767
      5 C8           1.6420    -1.3670     1.9700 c3         1 P42       0.094767
      6 CBX         18.0450    10.1850    -2.4690 c3         1 P42      -0.092100
      7 CBV         16.8970    10.3500    -1.4700 c3         1 P42      -0.084400
      8 CBS         15.9170     9.1850    -1.6250 c3         1 P42      -0.081400
      9 CBH         14.7690     9.3490    -0.6270 c3         1 P42      -0.082400
     10 CAQ         13.7880     8.1840    -0.7810 c3         1 P42      -0.082400
     11 CAP         12.6400     8.3480     0.2180 c3         1 P42      -0.082400
     12 CAO         11.6600     7.1830     0.0630 c3         1 P42      -0.081400
     13 CAN         10.5130     7.3480     1.0610 c3         1 P42      -0.082400
     14 CAM          9.5320     6.1830     0.9080 c3         1 P42      -0.082400
     15 CAL          8.3850     6.3470     1.9060 c3         1 P42      -0.081400
     16 CAK          7.4050     5.1830     1.7520 c3         1 P42      -0.081400
     17 CAJ          6.2570     5.3460     2.7500 c3         1 P42      -0.082400
     18 CAI          5.2760     4.1820     2.5960 c3         1 P42      -0.082400
     19 CAH          4.1280     4.3460     3.5940 c3         1 P42      -0.082400
     20 CAG          3.1480     3.1820     3.4400 c3         1 P42      -0.078400
     21 CAE          1.0200     2.1810     4.2840 c3         1 P42      -0.071400
     22 CAD         -0.1280     2.3450     5.2820 c3         1 P42       0.332900
     23 OAA          0.3800     2.2380     6.6140 oh         1 P42      -0.626800
     24 CAB         -2.3190     1.5130     5.7840 c3         1 P42       0.149400
     25 CBE         -3.2830     0.3660     5.4710 c3         1 P42       0.142100
     26 CBK         -3.4820     0.2660     3.9580 c3         1 P42       0.211400
     27 OBL         -2.2110     0.1320     3.3180 os         1 P42      -0.577200
     28 PBM         -2.0410    -0.0000     1.7220 p5         1 P42       1.332800
     29 OBF         -2.6870    -1.3210     1.2440 o          1 P42      -0.804000
     30 OBU         -2.7380     1.1930     1.0310 o          1 P42      -0.804000
     31 OBN         -0.4770     0.0000     1.3470 os         1 P42      -0.607200
     32 OBD         -2.7390    -0.8600     5.9630 os         1 P42      -0.391600
     33 CBC         -3.7250    -1.8180     6.3530 c3         1 P42       0.339900
     34 OBJ         -4.3910    -2.3160     5.1910 oh         1 P42      -0.606800
     35 CBB         -3.0470    -2.9770     7.0870 c3         1 P42      -0.083400
     36 CBA         -4.1130    -3.9400     7.6130 c3         1 P42      -0.084400
     37 CAZ         -3.4360    -5.0990     8.3470 c3         1 P42      -0.078400
     38 CAY         -4.5010    -6.0630     8.8730 c3         1 P42      -0.082400
     39 CAX         -3.8240    -7.2210     9.6080 c3         1 P42      -0.081400
     40 CAW         -4.8900    -8.1850    10.1330 c3         1 P42      -0.082400
     41 CAV         -4.2130    -9.3430    10.8680 c3         1 P42      -0.082400
     42 CAU         -5.2790   -10.3070    11.3940 c3         1 P42      -0.082400
     43 CAT         -4.6020   -11.4660    12.1270 c3         1 P42      -0.082400
     44 CAS         -5.6680   -12.4290    12.6540 c3         1 P42      -0.082400
     45 CAR         -4.9900   -13.5880    13.3880 c3         1 P42      -0.081400
     46 CBI         -6.0560   -14.5510    13.9130 c3         1 P42      -0.082400
     47 CBT         -5.3780   -15.7100    14.6480 c3         1 P42      -0.081400
     48 CBW         -6.4440   -16.6730    15.1730 c3         1 P42      -0.084400
     49 CBY         -5.7670   -17.8320    15.9080 c3         1 P42      -0.092100
     50 H4          -0.3610     0.8850    -0.5110 h1         1 P42       0.068700
     51 H4A         -0.3610    -0.8840    -0.5110 h1         1 P42       0.068700
     52 H5           1.8920     0.8210     0.6070 hx         1 P42       0.090700
     53 H5A          1.8920     0.1150    -1.0150 hx         1 P42       0.090700
     54 H6           1.9990    -3.2890    -0.0090 hx         1 P42       0.096478
     55 H6A          0.4170    -2.5220     0.1870 hx         1 P42       0.096478
     56 H6B          1.3890    -2.1900    -1.2540 hx         1 P42       0.096478
     57 H7           3.9210    -0.4950     0.9700 hx         1 P42       0.096478
     58 H7A          3.7950    -1.2900    -0.6060 hx         1 P42       0.096478
     59 H7B          3.8110    -2.2580     0.8750 hx         1 P42       0.096478
     60 H8           0.6590    -1.8150     2.0520 hx         1 P42       0.096478
     61 H8A          2.3550    -1.9520     2.5380 hx         1 P42       0.096478
     62 H8B          1.6120    -0.3570     2.3600 hx         1 P42       0.096478
     63 HBX         18.5640     9.2550    -2.2710 hc         1 P42       0.032700
     64 HBXA        17.6470    10.1700    -3.4760 hc         1 P42       0.032700
     65 HBV         16.3820    11.2830    -1.6630 hc         1 P42       0.040200
     66 HBS         15.5210     9.1780    -2.6330 hc         1 P42       0.040700
     67 HBSA        16.4320     8.2510    -1.4330 hc         1 P42       0.040700
     68 HBH         15.1650     9.3560     0.3810 hc         1 P42       0.041200
     69 HBHA        14.2540    10.2820    -0.8190 hc         1 P42       0.041200
     70 HAQ         13.3920     8.1770    -1.7890 hc         1 P42       0.040700
     71 HAQA        14.3030     7.2510    -0.5890 hc         1 P42       0.040700
     72 HAP         12.1250     9.2820     0.0260 hc         1 P42       0.041700
     73 HAPA        13.0370     8.3550     1.2260 hc         1 P42       0.041700
     74 HAO         12.1750     6.2500     0.2550 hc         1 P42       0.040700
     75 HAOA        11.2640     7.1760    -0.9450 hc         1 P42       0.040700
     76 HAN          9.9970     8.2810     0.8680 hc         1 P42       0.042200
     77 HANA        10.9090     7.3560     2.0690 hc         1 P42       0.042200
     78 HAM          9.1360     6.1740    -0.1000 hc         1 P42       0.039700
     79 HAL          7.8700     7.2810     1.7140 hc         1 P42       0.043200
     80 HAK          7.0080     5.1760     0.7440 hc         1 P42       0.038200
     81 HAKA         7.9200     4.2500     1.9440 hc         1 P42       0.038200
     82 HAJ          5.7410     6.2800     2.5580 hc         1 P42       0.044200
     83 HAJA         6.6530     5.3540     3.7580 hc         1 P42       0.044200
     84 HAI          5.7910     3.2480     2.7880 hc         1 P42       0.034700
     85 HAIA         4.8800     4.1750     1.5880 hc         1 P42       0.034700
     86 HAH          4.5250     4.3530     4.6020 hc         1 P42       0.046200
     87 HAG          3.6630     2.2480     3.6330 hc         1 P42       0.031700
     88 HAF          1.4850     4.2790     4.2450 hc         1 P42       0.048200
     89 HAFA         2.3970     3.3530     5.4460 hc         1 P42       0.048200
     90 HAE          0.6240     2.1740     3.2750 hc         1 P42       0.057700
     91 HAEA         1.5350     1.2480     4.4760 hc         1 P42       0.057700
     92 HAD         -0.5880     3.3170     5.1480 h2         1 P42       0.016700
     93 HOAA         0.1060     2.9880     7.1160 ho         1 P42       0.397000
     94 HAB         -2.1090     1.5290     6.8460 h1         1 P42       0.024200
     95 HABA        -2.7700     2.4540     5.4910 h1         1 P42       0.024200
     96 HBE         -4.2360     0.5560     5.9490 h1         1 P42       0.032700
     97 HBK         -3.9750     1.1610     3.5980 h1         1 P42       0.045200
     98 HBKA        -4.0930    -0.5990     3.7300 h1         1 P42       0.045200
     99 HBC         -4.4460    -1.3470     7.0100 h2         1 P42       0.005700
    100 HOBJ        -5.3230    -2.3030     5.3330 ho         1 P42       0.400000
    101 HBB         -2.4690    -2.5900     7.9170 hc         1 P42       0.061700
    102 HBBA        -2.3910    -3.5030     6.4040 hc         1 P42       0.061700
    103 HBA         -4.7690    -3.4140     8.2960 hc         1 P42       0.042200
    104 HAZ         -2.8580    -4.7120     9.1780 hc         1 P42       0.042200
    105 HAY         -5.1580    -5.5370     9.5550 hc         1 P42       0.041700
    106 HAYA        -5.0790    -6.4500     8.0430 hc         1 P42       0.041700
    107 HAX         -3.1670    -7.7470     8.9250 hc         1 P42       0.040200
    108 HAXA        -3.2460    -6.8330    10.4380 hc         1 P42       0.040200
    109 HAW         -5.4680    -8.5730     9.3030 hc         1 P42       0.041200
    110 HAWA        -5.5470    -7.6600    10.8160 hc         1 P42       0.041200
    111 HAV         -3.5560    -9.8690    10.1860 hc         1 P42       0.040700
    112 HAVA        -3.6360    -8.9560    11.6990 hc         1 P42       0.040700
    113 HAU         -5.9360    -9.7810    12.0770 hc         1 P42       0.041200
    114 HAUA        -5.8570   -10.6940    10.5630 hc         1 P42       0.041200
    115 HAT         -3.9460   -11.9920    11.4440 hc         1 P42       0.040700
    116 HATA        -4.0230   -11.0790    12.9580 hc         1 P42       0.040700
    117 HAS         -6.2460   -12.8160    11.8230 hc         1 P42       0.041200
    118 HAR         -4.3340   -14.1130    12.7040 hc         1 P42       0.040700
    119 HBI         -6.6330   -14.9390    13.0830 hc         1 P42       0.040700
    120 HBIA        -6.7130   -14.0260    14.5960 hc         1 P42       0.040700
    121 HBT         -4.8010   -15.3220    15.4790 hc         1 P42       0.040700
    122 HBTA        -4.7210   -16.2350    13.9660 hc         1 P42       0.040700
    123 HBW         -7.0220   -17.0610    14.3430 hc         1 P42       0.039700
    124 HBY         -6.5200   -18.5270    16.2590 hc         1 P42       0.032367
    125 HBYA        -5.2090   -17.4460    16.7530 hc         1 P42       0.032367
    126 N            2.0200    -1.2710     0.5530 n4         1 P42      -0.567800
    127 H77         18.7350    11.0140    -2.3650 hc         1 P42       0.032700
    128 H78         17.2930    10.3570    -0.4620 hc         1 P42       0.040200
    129 H79         10.0480     5.2500     1.1010 hc         1 P42       0.039700
    130 H80          8.7810     6.3550     2.9140 hc         1 P42       0.043200
    131 H81          3.6130     5.2790     3.4020 hc         1 P42       0.046200
    132 H82          2.7520     3.1740     2.4320 hc         1 P42       0.031700
    133 H83         -4.6920    -4.3270     6.7830 hc         1 P42       0.042200
    134 H84         -2.7790    -5.6240     7.6640 hc         1 P42       0.042200
    135 H85         -6.3240   -11.9030    13.3370 hc         1 P42       0.041200
    136 H86         -4.4120   -13.2000    14.2180 hc         1 P42       0.040700
    137 H87         -7.1010   -16.1480    15.8560 hc         1 P42       0.039700
    138 H88         -5.0910   -18.3420    15.2320 hc         1 P42       0.032367
    139 OAC         -1.1020     1.3230     5.0600 os         1 P42      -0.368600
    140 CAF          2.0000     3.3460     4.4380 c3         1 P42      -0.085400
@<TRIPOS>BOND
     1     1    50 1
     2     1    51 1
     3     2     1 1
     4     2    52 1
     5     2    53 1
     6     3   126 1
     7     3    54 1
     8     3    55 1
     9     3    56 1
    10     4   126 1
    11     4    57 1
    12     4    58 1
    13     4    59 1
    14     5   126 1
    15     5    60 1
    16     5    61 1
    17     5    62 1
    18     6     7 1
    19     6    63 1
    20     6    64 1
    21     7     8 1
    22     7    65 1
    23     8     9 1
    24     8    66 1
    25     8    67 1
    26     9    10 1
    27     9    68 1
    28     9    69 1
    29    10    70 1
    30    10    71 1
    31    11    10 1
    32    11    12 1
    33    11    72 1
    34    11    73 1
    35    12    74 1
    36    12    75 1
    37    13    12 1
    38    13    14 1
    39    13    76 1
    40    13    77 1
    41    14    15 1
    42    14    78 1
    43    15    16 1
    44    15    79 1
    45    16    80 1
    46    16    81 1
    47    17    16 1
    48    17    18 1
    49    17    82 1
    50    17    83 1
    51    18    84 1
    52    18    85 1
    53    19    18 1
    54    19    86 1
    55    20    19 1
    56    20   140 1
    57    20    87 1
    58   140    21 1
    59   140    88 1
    60   140    89 1
    61    21    90 1
    62    21    91 1
    63    22    21 1
    64    22    23 1
    65    22    92 1
    66    23    93 1
    67   139    22 1
    68    24   139 1
    69    24    94 1
    70    24    95 1
    71    25    24 1
    72    25    32 1
    73    25    96 1
    74    26    25 1
    75    26    97 1
    76    26    98 1
    77    27    26 1
    78    28    27 1
    79    28    29 1
    80    30    28 1
    81    31     1 1
    82    31    28 1
    83    33    32 1
    84    33    35 1
    85    33    99 1
    86    34    33 1
    87    34   100 1
    88    35   101 1
    89    35   102 1
    90    36    35 1
    91    36    37 1
    92    36   103 1
    93    37   104 1
    94    38    37 1
    95    38    39 1
    96    38   105 1
    97    38   106 1
    98    39   107 1
    99    39   108 1
   100    40    39 1
   101    40    41 1
   102    40   109 1
   103    40   110 1
   104    41    42 1
   105    41   111 1
   106    41   112 1
   107    42    43 1
   108    42   113 1
   109    42   114 1
   110    43    44 1
   111    43   115 1
   112    43   116 1
   113    44    45 1
   114    44   117 1
   115    45    46 1
   116    45   118 1
   117    46    47 1
   118    46   119 1
   119    46   120 1
   120    47    48 1
   121    47   121 1
   122    47   122 1
   123    48   123 1
   124    49    48 1
   125    49   124 1
   126    49   125 1
   127   126     2 1
   128     6   127 1
   129     7   128 1
   130    14   129 1
   131    15   130 1
   132    19   131 1
   133    20   132 1
   134    36   133 1
   135    37   134 1
   136    44   135 1
   137    45   136 1
   138    48   137 1
   139    49   138 1
@<TRIPOS>SUBSTRUCTURE
     1 P42         1 TEMP              0 ****  ****    0 ROOT
