@<TRIPOS>MOLECULE
P43
   54    57     1     0     0
SMALL
bcc


@<TRIPOS>ATOM
      1 C1          7.5940    5.1090   -2.1440 cg        1 P43     -0.215000
      2 C2          0.0900   -1.4010    0.0050 ca        1 P43     -0.115000
      3 C3          1.3860   -0.8930    0.0930 ca        1 P43     -0.071000
      4 C4          1.8180   -0.2360    1.2540 ca        1 P43     -0.053300
      5 C5          0.9290   -0.0940    2.3250 ca        1 P43     -0.102000
      6 C6         -0.3720   -0.6030    2.2350 ca        1 P43     -0.201300
      7 C7         -0.7940   -1.2590    1.0730 ca        1 P43     -0.103000
      8 C8         -1.2940   -0.4830    3.3950 c3        1 P43      0.177100
      9 N9         -2.0890    0.7910    3.3140 n4        1 P43     -0.845600
     10 C10         3.2110    0.2990    1.3620 c3        1 P43     -0.032400
     11 C11         4.2380   -0.8220    1.2470 c3        1 P43     -0.101400
     12 C12         5.6580   -0.2560    1.3060 c3        1 P43      0.082500
     13 N13         5.9110    0.8180    0.3650 n         1 P43     -0.450800
     14 C14         4.9210    1.8680    0.3860 c3        1 P43      0.082500
     15 C15         3.4750    1.3640    0.3050 c3        1 P43     -0.101400
     16 C16         6.7050    0.5520   -0.7550 c         1 P43      0.592600
     17 O17         7.1400   -0.5990   -0.9630 o         1 P43     -0.582100
     18 C18         7.1080    1.6350   -1.6650 cc        1 P43      0.181200
     19 O19         7.0390    2.9710   -1.2520 os        1 P43     -0.342800
     20 C20         7.5590    3.7320   -2.3150 cc        1 P43      0.403700
     21 C21         7.9430    2.8980   -3.3570 cd        1 P43     -0.240300
     22 C22         7.6590    1.5510   -2.9360 cd        1 P43     -0.170300
     23 C23         7.6330    6.3010   -2.0100 ch        1 P43     -0.033000
     24 C24         7.6920    7.6970   -1.8690 ca        1 P43     -0.029000
     25 C25         8.6180    8.4410   -2.6190 ca        1 P43     -0.076000
     26 C26         8.6910    9.8240   -2.4880 ca        1 P43     -0.144000
     27 C27         7.8400   10.4920   -1.6050 ca        1 P43     -0.085000
     28 C28         6.9130    9.7830   -0.8500 ca        1 P43     -0.170000
     29 C29         6.8310    8.3830   -0.9760 ca        1 P43      0.152900
     30 F30         5.9220    7.7050   -0.2360 f         1 P43     -0.134900
     31 H2         -0.2340   -1.9240   -0.9100 ha        1 P43      0.162000
     32 H3          2.0810   -1.0160   -0.7550 ha        1 P43      0.166000
     33 H7         -1.8080   -1.6810    1.0050 ha        1 P43      0.139000
     34 H5          1.2650    0.4030    3.2480 ha        1 P43      0.138000
     35 H10         3.3400    0.7800    2.3750 hc        1 P43      0.058700
     36 H81C       -0.7230   -0.4620    4.3680 hx        1 P43      0.112700
     37 H82C       -2.0300   -1.3380    3.4190 hx        1 P43      0.112700
     38 H91N       -2.6360    0.8030    2.4470 hn        1 P43      0.456800
     39 H92N       -2.7220    0.8690    4.1140 hn        1 P43      0.456800
     40 H111        4.0890   -1.3810    0.2870 hc        1 P43      0.054700
     41 H112        4.1100   -1.5480    2.0900 hc        1 P43      0.054700
     42 H121        6.3910   -1.0940    1.1310 h1        1 P43      0.072450
     43 H122        5.8390    0.1640    2.3380 h1        1 P43      0.072450
     44 H141        5.0520    2.4340    1.3540 h1        1 P43      0.072450
     45 H142        5.0860    2.5910   -0.4610 h1        1 P43      0.072450
     46 H151        2.7910    2.2370    0.4600 hc        1 P43      0.054700
     47 H152        3.2720    0.9460   -0.7150 hc        1 P43      0.054700
     48 H22         7.8490    0.6410   -3.5030 ha        1 P43      0.183000
     49 H21         8.3800    3.1940   -4.3070 ha        1 P43      0.178000
     50 H25         9.2910    7.9160   -3.3140 ha        1 P43      0.149000
     51 H26         9.4220   10.3920   -3.0820 ha        1 P43      0.148000
     52 H27         7.9020   11.5860   -1.5030 ha        1 P43      0.147000
     53 H28         6.2390   10.3000   -0.1510 ha        1 P43      0.154000
     54 H93        -1.4540    1.5950    3.3040 hn        1 P43      0.456800
@<TRIPOS>BOND
     1    1   20 1
     2    1   23 3
     3    2    3 ar
     4    2    7 ar
     5    2   31 1
     6    3    4 ar
     7    3   32 1
     8    4    5 ar
     9    4   10 1
    10    5    6 ar
    11    5   34 1
    12    6    7 ar
    13    6    8 1
    14    7   33 1
    15    8    9 1
    16    8   36 1
    17    8   37 1
    18    9   38 1
    19    9   39 1
    20    9   54 1
    21   10   11 1
    22   10   15 1
    23   10   35 1
    24   11   12 1
    25   11   40 1
    26   11   41 1
    27   12   13 1
    28   12   42 1
    29   12   43 1
    30   13   14 1
    31   13   16 1
    32   14   15 1
    33   14   44 1
    34   14   45 1
    35   15   46 1
    36   15   47 1
    37   16   17 2
    38   16   18 1
    39   18   19 1
    40   18   22 2
    41   19   20 1
    42   20   21 2
    43   21   22 1
    44   21   49 1
    45   22   48 1
    46   23   24 1
    47   24   25 ar
    48   24   29 ar
    49   25   26 ar
    50   25   50 1
    51   26   27 ar
    52   26   51 1
    53   27   28 ar
    54   27   52 1
    55   28   29 ar
    56   28   53 1
    57   29   30 1
@<TRIPOS>SUBSTRUCTURE
     1 P43         1 TEMP              0 ****  ****    0 ROOT
