@<TRIPOS>MOLECULE
P44
   47    51     1     0     0
SMALL
bcc


@<TRIPOS>ATOM
      1 N01          0.0000     0.0000     0.0000 n2         1 P44      -0.287000
      2 C02          1.3050     0.0000     0.0000 c2         1 P44       0.035000
      3 C03          1.7590     0.0000     1.3360 c2         1 P44      -0.170000
      4 C04          0.6180     0.0000     2.1520 c2         1 P44      -0.025000
      5 N05         -0.4680     0.0000     1.3170 na         1 P44       0.298000
      6 N06          0.4330    -0.0010     3.4750 n2         1 P44      -0.198000
      7 C07         -0.7930     0.0000     3.9750 c2         1 P44       0.072000
      8 N08         -1.8620     0.0000     3.1730 n2         1 P44      -0.228000
      9 C09         -1.7240     0.0000     1.8610 c2         1 P44      -0.022000
     10 N10         -2.8290    -0.0000     1.0500 nu         1 P44       0.215000
     11 C11         -4.1060    -0.1120     1.6070 ca         1 P44      -0.114000
     12 C12         -5.1850     0.5270     1.0100 ca         1 P44      -0.117000
     13 C13         -6.4450     0.4150     1.5640 ca         1 P44      -0.087500
     14 C14         -6.6340    -0.3310     2.7120 ca         1 P44      -0.107000
     15 C15         -5.5620    -0.9690     3.3100 ca         1 P44      -0.087500
     16 C16         -4.3000    -0.8670     2.7580 ca         1 P44      -0.117000
     17 N17         -0.9700    -0.0000     5.3420 nu         1 P44       0.128000
     18 C18          0.1950    -0.0010     6.2310 c3         1 P44      -0.355000
     19 C19         -0.2750    -0.0010     7.6870 DU         1 P44       0.022000
     20 C20          0.9360    -0.1260     8.6140 c3         1 P44      -0.156500
     21 C21          0.4660    -0.1260    10.0700 c3         1 P44      -0.129500
     22 C22         -0.2700     1.1810    10.3680 c3         1 P44      -0.087000
     23 C23         -1.4810     1.3070     9.4410 c3         1 P44      -0.129500
     24 C24         -1.0120     1.3080     7.9850 c3         1 P44      -0.156500
     25 C25          3.1210    -0.0010     1.7740 c1         1 P44      -0.031000
     26 N26          4.2050     0.0180     2.1170 n1         1 P44      -0.092000
     27 H02          1.6920     0.2260    -0.9860 h4         1 P44       0.153000
     28 HN10        -2.8520     0.6730     0.3090 hn         1 P44       0.085000
     29 H12         -4.9850     1.3430     0.3250 ha         1 P44       0.121500
     30 H13         -7.4210     0.8370     1.3550 ha         1 P44       0.114000
     31 H14         -7.6790    -0.3510     2.9960 ha         1 P44       0.105000
     32 H15         -5.4160    -1.7800     4.0130 ha         1 P44       0.114000
     33 H16         -3.4310    -1.3090     3.2310 ha         1 P44       0.121500
     34 HN17        -1.4690    -0.4470     6.0850 hn         1 P44       0.109000
     35 H181         1.0980     0.0070     5.6330 h1         1 P44       0.185000
     36 H182         0.0620    -0.8280     6.9180 DU         1 P44       0.090000
     37 H19         -0.9440    -0.8360     7.8550 ha         1 P44       0.049000
     38 H201         1.5750     0.7150     8.3750 hc         1 P44       0.081250
     39 H202         1.7600    -0.7940     8.3940 hc         1 P44       0.081250
     40 H211         1.2900     0.0820    10.7420 hc         1 P44       0.064750
     41 H212         0.1710    -1.1090    10.4160 hc         1 P44       0.064750
     42 H221         0.3990     2.0270    10.2660 hc         1 P44       0.049500
     43 H222        -0.5780     1.2860    11.4020 hc         1 P44       0.049500
     44 H231        -1.9270     2.2770     9.2580 hc         1 P44       0.064750
     45 H232        -2.0380     0.3920     9.6060 hc         1 P44       0.064750
     46 H241        -2.0690     1.3530     7.7550 hc         1 P44       0.081250
     47 H242        -0.2360     2.0630     8.0150 hc         1 P44       0.081250
@<TRIPOS>BOND
     1     1     2 1   
     2     1     5 1   
     3     2     3 1   
     4     2    27 1   
     5     3     4 1   
     6     3    25 1   
     7     4     5 1   
     8     4     6 1   
     9     5     9 1   
    10     6     7 1   
    11     7     8 1   
    12     7    17 1   
    13     8     9 1   
    14     9    10 1   
    15    10    11 1   
    16    10    28 1   
    17    11    12 1   
    18    11    16 1   
    19    12    13 1   
    20    12    29 1   
    21    13    14 1   
    22    13    30 1   
    23    14    15 1   
    24    14    31 1   
    25    15    16 1   
    26    15    32 1   
    27    16    33 1   
    28    17    18 1   
    29    17    34 1   
    30    18    19 1   
    31    18    35 1   
    32    18    36 1   
    33    19    20 1   
    34    19    24 1   
    35    19    36 1   
    36    19    37 1   
    37    20    21 1   
    38    20    38 1   
    39    20    39 1   
    40    21    22 1   
    41    21    40 1   
    42    21    41 1   
    43    22    23 1   
    44    22    42 1   
    45    22    43 1   
    46    23    24 1   
    47    23    44 1   
    48    23    45 1   
    49    24    46 1   
    50    24    47 1   
    51    25    26 1   
@<TRIPOS>SUBSTRUCTURE
     1 P44         1 TEMP              0 ****  ****    0 ROOT
