@<TRIPOS>MOLECULE
molecule
   41    44     1     0     0
SMALL
bcc


@<TRIPOS>ATOM
      1 N01          0.0000     0.0000     0.0000 nc         1 P45      -0.583100
      2 C02          1.3060     0.0000     0.0000 cd         1 P45       0.474500
      3 C03          1.7590     0.0000     1.3360 cd         1 P45      -0.273300
      4 C04          0.6190     0.0000     2.1530 cc         1 P45       0.530500
      5 N05         -0.4670    -0.0010     1.3180 na         1 P45      -0.169600
      6 N06          0.4340     0.0000     3.4760 nc         1 P45      -0.835000
      7 C07         -0.7920     0.0000     3.9760 cd         1 P45       0.996900
      8 N08         -1.8610     0.0000     3.1740 nd         1 P45      -0.878000
      9 C09         -1.7220    -0.0000     1.8620 cc         1 P45       0.878400
     10 N10         -2.8280    -0.0000     1.0500 nu         1 P45      -0.715300
     11 C11         -4.1050    -0.1120     1.6090 ca         1 P45       0.104600
     12 C12         -5.1850     0.5270     1.0120 ca         1 P45      -0.142500
     13 C13         -6.4450     0.4150     1.5650 ca         1 P45      -0.110500
     14 C14         -6.6320    -0.3320     2.7130 ca         1 P45      -0.159000
     15 C15         -5.5610    -0.9700     3.3110 ca         1 P45      -0.110500
     16 C16         -4.3000    -0.8670     2.7580 ca         1 P45      -0.142500
     17 N17         -0.9690     0.0010     5.3440 nu         1 P45      -0.846900
     18 C18          0.1960     0.0000     6.2320 c3         1 P45       0.258100
     19 C19         -0.2670     0.0010     7.6660 ca         1 P45      -0.095300
     20 C20         -0.4830     1.1990     8.3220 ca         1 P45      -0.103000
     21 C21         -0.9090     1.2000     9.6370 ca         1 P45      -0.140000
     22 C22         -1.1150     0.0020    10.2980 ca         1 P45       0.015400
     23 C23         -0.8980    -1.1960     9.6420 ca         1 P45      -0.140000
     24 C24         -0.4790    -1.1960     8.3240 ca         1 P45      -0.103000
     25 C25          3.1220    -0.0010     1.7740 ch         1 P45       0.258500
     26 N26          4.2080    -0.0160     2.1080 n1         1 P45      -0.390800
     27 Cl27        -1.6470     0.0020    11.9500 cl         1 P45      -0.105400
     28 H02          1.9680     0.2730    -0.8130 h4         1 P45       0.075800
     29 HN10        -2.6240    -0.3380     0.1310 hn         1 P45       0.471800
     30 H12         -4.8660     1.2540     0.2740 ha         1 P45       0.171500
     31 H13         -7.4500     0.6660     1.2490 ha         1 P45       0.140000
     32 H14         -7.4230    -0.4760     3.4390 ha         1 P45       0.143000
     33 H15         -5.7600    -1.5610     4.1970 ha         1 P45       0.140000
     34 H16         -3.3610    -0.8410     3.2990 ha         1 P45       0.171500
     35 HN17        -1.8330     0.2630     5.7770 hn         1 P45       0.458800
     36 H181         0.7960    -0.7930     5.8030 h1         1 P45       0.069200
     37 H182         0.9350     0.7860     6.3330 h1         1 P45       0.069200
     38 H20          0.0280     1.9990     7.7990 ha         1 P45       0.158000
     39 H21         -0.8350     1.9860    10.3790 ha         1 P45       0.150000
     40 H23         -1.3170    -2.0580    10.1470 ha         1 P45       0.150000
     41 H24         -0.2050    -2.2420     8.3830 ha         1 P45       0.158000
@<TRIPOS>BOND
     1     1     2 2
     2     1     5 1
     3     2     3 1
     4     2    28 1
     5     3    25 1
     6     3     4 2
     7     4     6 1
     8     4     5 1
     9     5     9 1
    10     6     7 2
    11     7    17 1
    12     7     8 1
    13     8     9 2
    14     9    10 1
    15    10    11 1
    16    10    29 1
    17    11    12 ar
    18    11    16 ar
    19    12    13 ar
    20    12    30 1
    21    13    14 ar
    22    13    31 1
    23    14    15 ar
    24    14    32 1
    25    15    16 ar
    26    15    33 1
    27    16    34 1
    28    17    18 1
    29    17    35 1
    30    18    19 1
    31    18    36 1
    32    18    37 1
    33    19    24 ar
    34    19    20 ar
    35    20    21 ar
    36    20    38 1
    37    21    22 ar
    38    21    39 1
    39    22    23 ar
    40    22    27 1
    41    23    24 ar
    42    23    40 1
    43    24    41 1
    44    25    26 3
@<TRIPOS>SUBSTRUCTURE
     1 P45         1 TEMP              0 ****  ****    0 ROOT
