@<TRIPOS>MOLECULE
P46
   64    67     1     0     0
SMALL
bcc


@<TRIPOS>ATOM
      1 C01          0.0000     0.0000     0.0000 ca         1 P46       0.234100
      2 C02          1.3870     0.0000     0.0000 ca         1 P46      -0.248000
      3 C04          1.3810     0.0000     2.4020 ca         1 P46      -0.231500
      4 C05         -0.0020     0.0010     2.3990 ca         1 P46       0.064000
      5 C11          2.5870    -2.5710     4.5780 cc         1 P46      -0.210100
      6 C12          3.5410    -3.5560     4.4780 ca         1 P46      -0.078000
      7 C13          4.6980    -2.9310     3.8050 ca         1 P46      -0.158000
      8 C14          4.3360    -1.6260     3.5620 cc         1 P46      -0.165100
      9 C15          5.8480    -3.7170     3.5630 ca         1 P46       0.033000
     10 C03          2.0770     0.0000     1.2020 ca         1 P46       0.261100
     11 C06         -0.6930     0.0000     1.2030 ca         1 P46      -0.193000
     12 S07          2.2570     0.0000     3.9300 sy         1 P46       1.034300
     13 O08          3.2400     1.0220     3.8280 o          1 P46      -0.558800
     14 N10          3.0810    -1.4340     4.0220 na         1 P46       0.283000
     15 C16          5.8650    -5.0150     3.9480 ca         1 P46      -0.206000
     16 C17          4.7660    -5.6130     4.5870 ca         1 P46       0.020600
     17 C18          3.6270    -4.9160     4.8540 ca         1 P46      -0.088000
     18 N19          4.8440    -6.9580     4.9620 nu         1 P46      -0.422600
     19 C20          6.0610    -7.7250     4.6850 c3         1 P46       0.226500
     20 C21          5.7160    -9.2140     4.5930 c3         1 P46      -0.158400
     21 C22          6.9840   -10.0090     4.2690 c3         1 P46       0.066500
     22 N23          8.0120    -9.6890     5.2710 n          1 P46      -0.072800
     23 C24          8.3550    -8.2800     5.5040 c3         1 P46       0.066500
     24 C25          7.0710    -7.5030     5.8130 c3         1 P46      -0.158400
     25 C26          8.6250   -10.6690     5.9610 c          1 P46       0.540100
     26 C27          9.6770   -10.3250     6.9850 c3         1 P46      -0.078500
     27 C28         11.0040   -10.0430     6.2780 c3         1 P46      -0.247400
     28 C29         12.0230    -9.5800     7.2870 c          1 P46       0.311100
     29 O30         11.7180    -9.4840     8.4570 o          1 P46      -0.513100
     30 N31         13.2740    -9.2720     6.8900 nz         1 P46       0.230600
     31 N32          9.8450   -11.4510     7.9120 nz         1 P46       0.060400
     32 O33          8.3330   -11.8280     5.7600 o          1 P46      -0.595100
     33 O34          3.4360    -0.0010     1.2060 oh         1 P46      -0.504100
     34 O35         -0.6790     0.0060    -1.1770 oh         1 P46      -0.500100
     35 H1           1.9290    -0.0000    -0.9380 ha         1 P46       0.133000
     36 H2          -0.5440     0.0010     3.3360 ha         1 P46       0.134000
     37 H5           6.7110    -3.2830     3.0720 ha         1 P46       0.099000
     38 H6          -1.7760     0.0000     1.2030 ha         1 P46       0.133000
     39 H7           6.7500    -5.6090     3.7570 ha         1 P46       0.090000
     40 H8           2.7930    -5.4000     5.3480 ha         1 P46       0.113000
     41 H9           4.0560    -7.4050     5.3860 hn         1 P46       0.311800
     42 H10          6.4940    -7.3980     3.7470 h1         1 P46       0.029700
     43 H11          6.0120    -8.6810     3.6980 hc         1 P46       0.070450
     44 H12          4.7300    -9.5810     4.3320 hc         1 P46       0.070450
     45 H13          6.7650   -11.0690     4.3010 h1         1 P46       0.029450
     46 H14          7.3410    -9.7350     3.2840 h1         1 P46       0.029450
     47 H15          9.0330    -8.2060     6.3450 h1         1 P46       0.029450
     48 H16          8.8210    -7.8690     4.6160 h1         1 P46       0.029450
     49 H17          7.2980    -6.4470     5.8910 hc         1 P46       0.070450
     50 H18          6.6510    -7.8580     6.7470 hc         1 P46       0.070450
     51 H19          9.3680    -9.4450     7.5370 hx         1 P46       0.108700
     52 H20         10.4550    -9.2360     6.7470 hc         1 P46       0.128200
     53 H21         11.0560    -9.7220     5.2450 hc         1 P46       0.128200
     54 H22         13.5270    -9.8470     6.1110 hn         1 P46       0.254467
     55 H23         13.9120    -9.4320     7.6440 hn         1 P46       0.254467
     56 H24         10.4710   -12.1220     7.5120 hn         1 P46       0.247467
     57 H25          8.9570   -11.8820     8.0780 hn         1 P46       0.247467
     58 H27          3.7530     0.5870     0.5400 ho         1 P46       0.432000
     59 H28         -0.8660     0.8950    -1.4280 ho         1 P46       0.423000
     60 H3           1.6050    -2.6840     5.0190 h4         1 P46       0.170000
     61 O09          1.2750    -0.0340     4.9560 o          1 P46      -0.558800
     62 H313        13.3110    -8.3090     6.6200 hn         1 P46       0.254467
     63 H323        10.2110   -11.1160     8.7810 hn         1 P46       0.247467
     64 H4           4.9520    -0.8790     3.0760 h4         1 P46       0.173000
@<TRIPOS>BOND
     1     1     2 ar  
     2     1    11 ar  
     3     1    34 1   
     4     2    10 ar  
     5     2    35 1   
     6     3     4 ar  
     7     3    10 ar  
     8     3    12 1   
     9     4    11 ar  
    10     4    36 1   
    11     5     6 2   
    12     5    14 1   
    13     5    60 1   
    14     6     7 ar  
    15     6    17 ar  
    16     7     8 2   
    17     7     9 ar  
    18     8    14 1   
    19     8    64 1   
    20     9    15 ar  
    21     9    37 1   
    22    10    33 1   
    23    11    38 1   
    24    12    13 2   
    25    12    14 1   
    26    12    61 2   
    27    15    16 ar  
    28    15    39 1   
    29    16    17 ar  
    30    16    18 1   
    31    17    40 1   
    32    18    19 1   
    33    18    41 1   
    34    19    20 1   
    35    19    24 1   
    36    19    42 1   
    37    20    21 1   
    38    20    43 1   
    39    20    44 1   
    40    21    22 1   
    41    21    45 1   
    42    21    46 1   
    43    22    23 1   
    44    22    25 1   
    45    23    24 1   
    46    23    47 1   
    47    23    48 1   
    48    24    49 1   
    49    24    50 1   
    50    25    26 1   
    51    25    32 2   
    52    26    27 1   
    53    26    31 1   
    54    26    51 1   
    55    27    28 1   
    56    27    52 1   
    57    27    53 1   
    58    28    29 2   
    59    28    30 1   
    60    30    54 1   
    61    30    55 1   
    62    30    62 1   
    63    31    56 1   
    64    31    57 1   
    65    31    63 1   
    66    33    58 1   
    67    34    59 1   
@<TRIPOS>SUBSTRUCTURE
     1 P46         1 TEMP              0 ****  ****    0 ROOT
