@<TRIPOS>MOLECULE
molecule
   64    67     1     0     0
SMALL
bcc


@<TRIPOS>ATOM
      1 C01          0.0000     0.0000     0.0000 ca         1 P46       0.206100
      2 C02          1.3870     0.0000     0.0000 ca         1 P46      -0.245000
      3 C04          1.3810     0.0000     2.4020 ca         1 P46      -0.354500
      4 C05         -0.0020     0.0010     2.3990 ca         1 P46       0.014000
      5 C11          2.5870    -2.5710     4.5780 cc         1 P46      -0.148100
      6 C12          3.5410    -3.5560     4.4780 ca         1 P46      -0.064000
      7 C13          4.6980    -2.9310     3.8050 ca         1 P46      -0.143000
      8 C14          4.3360    -1.6260     3.5620 cc         1 P46      -0.088100
      9 C15          5.8480    -3.7170     3.5630 ca         1 P46      -0.026000
     10 C03          2.0770     0.0000     1.2020 ca         1 P46       0.233100
     11 C06         -0.6930     0.0000     1.2030 ca         1 P46      -0.195000
     12 S07          2.2570     0.0000     3.9300 sy         1 P46       1.408300
     13 O08          3.2400     1.0220     3.8280 o          1 P46      -0.599300
     14 N10          3.0810    -1.4340     4.0220 na         1 P46      -0.142000
     15 C16          5.8650    -5.0150     3.9480 ca         1 P46      -0.208000
     16 C17          4.7660    -5.6130     4.5870 ca         1 P46       0.156600
     17 C18          3.6270    -4.9160     4.8540 ca         1 P46      -0.151000
     18 N19          4.8440    -6.9580     4.9620 nu         1 P46      -0.833600
     19 C20          6.0610    -7.7250     4.6850 c3         1 P46       0.318500
     20 C21          5.7160    -9.2140     4.5930 c3         1 P46      -0.191400
     21 C22          6.9840   -10.0090     4.2690 c3         1 P46       0.106000
     22 N23          8.0120    -9.6890     5.2710 n          1 P46      -0.435800
     23 C24          8.3550    -8.2800     5.5040 c3         1 P46       0.106000
     24 C25          7.0710    -7.5030     5.8130 c3         1 P46      -0.191400
     25 C26          8.6250   -10.6690     5.9610 c          1 P46       0.624100
     26 C27          9.6770   -10.3250     6.9850 c3         1 P46       0.082500
     27 C28         11.0040   -10.0430     6.2780 c3         1 P46      -0.295400
     28 C29         12.0230    -9.5800     7.2870 c          1 P46       0.514100
     29 O30         11.7180    -9.4840     8.4570 o          1 P46      -0.463100
     30 N31         13.2740    -9.2720     6.8900 nz         1 P46      -0.679400
     31 N32          9.8450   -11.4510     7.9120 nz         1 P46      -0.807600
     32 O33          8.3330   -11.8280     5.7600 o          1 P46      -0.547100
     33 O34          3.4360    -0.0010     1.2060 oh         1 P46      -0.520100
     34 O35         -0.6790     0.0060    -1.1770 oh         1 P46      -0.518100
     35 H1           1.9290    -0.0000    -0.9380 ha         1 P46       0.156000
     36 H2          -0.5440     0.0010     3.3360 ha         1 P46       0.168000
     37 H5           6.7110    -3.2830     3.0720 ha         1 P46       0.129000
     38 H6          -1.7760     0.0000     1.2030 ha         1 P46       0.160000
     39 H7           6.7500    -5.6090     3.7570 ha         1 P46       0.097000
     40 H8           2.7930    -5.4000     5.3480 ha         1 P46       0.135000
     41 H9           4.0560    -7.4050     5.3860 hn         1 P46       0.455800
     42 H10          6.4940    -7.3980     3.7470 h1         1 P46       0.043700
     43 H11          6.0120    -8.6810     3.6980 hc         1 P46       0.100200
     44 H12          4.7300    -9.5810     4.3320 hc         1 P46       0.100200
     45 H13          6.7650   -11.0690     4.3010 h1         1 P46       0.056950
     46 H14          7.3410    -9.7350     3.2840 h1         1 P46       0.056950
     47 H15          9.0330    -8.2060     6.3450 h1         1 P46       0.056950
     48 H16          8.8210    -7.8690     4.6160 h1         1 P46       0.056950
     49 H17          7.2980    -6.4470     5.8910 hc         1 P46       0.100200
     50 H18          6.6510    -7.8580     6.7470 hc         1 P46       0.100200
     51 H19          9.3680    -9.4450     7.5370 hx         1 P46       0.135700
     52 H20         10.4550    -9.2360     6.7470 hc         1 P46       0.169700
     53 H21         11.0560    -9.7220     5.2450 hc         1 P46       0.169700
     54 H22         13.5270    -9.8470     6.1110 hn         1 P46       0.500800
     55 H23         13.9120    -9.4320     7.6440 hn         1 P46       0.500800
     56 H24         10.4710   -12.1220     7.5120 hn         1 P46       0.478800
     57 H25          8.9570   -11.8820     8.0780 hn         1 P46       0.478800
     58 H27          3.7530     0.5870     0.5400 ho         1 P46       0.448000
     59 H28         -0.8660     0.8950    -1.4280 ho         1 P46       0.440000
     60 H3           1.6050    -2.6840     5.0190 h4         1 P46       0.199000
     61 O09          1.2750    -0.0340     4.9560 o          1 P46      -0.599300
     62 H313        13.3110    -8.3090     6.6200 hn         1 P46       0.500800
     63 H323        10.2110   -11.1160     8.7810 hn         1 P46       0.478800
     64 H4           4.9520    -0.8790     3.0760 h4         1 P46       0.203000
@<TRIPOS>BOND
     1    61    12 2
     2    11     4 ar
     3    11     1 ar
     4     4     3 ar
     5    34     1 1
     6     1     2 ar
     7    12     3 1
     8    12    13 2
     9    12    14 1
    10     3    10 ar
    11     8    14 1
    12     8     7 2
    13    14     5 1
    14     7     9 ar
    15     7     6 ar
    16    10     2 ar
    17    10    33 1
    18     9    15 ar
    19     5     6 2
    20     6    17 ar
    21    15    16 ar
    22    17    16 ar
    23    16    18 1
    24    18    19 1
    25    19    20 1
    26    19    24 1
    27    20    21 1
    28    21    22 1
    29    29    28 2
    30    24    23 1
    31    30    28 1
    32    23    22 1
    33    22    25 1
    34    28    27 1
    35    25    26 1
    36    25    32 2
    37    26    27 1
    38    26    31 1
    39     2    35 1
    40     4    36 1
    41     5    60 1
    42     8    64 1
    43     9    37 1
    44    11    38 1
    45    15    39 1
    46    17    40 1
    47    18    41 1
    48    19    42 1
    49    20    43 1
    50    20    44 1
    51    21    45 1
    52    21    46 1
    53    23    47 1
    54    23    48 1
    55    24    49 1
    56    24    50 1
    57    26    51 1
    58    27    52 1
    59    27    53 1
    60    30    54 1
    61    30    55 1
    62    31    56 1
    63    31    57 1
    64    33    58 1
    65    34    59 1
    66    62    30 1
    67    63    31 1
@<TRIPOS>SUBSTRUCTURE
     1 P46         1 TEMP              0 ****  ****    0 ROOT
