@<TRIPOS>MOLECULE
P47
   34    35     1     0     0
SMALL
bcc


@<TRIPOS>ATOM
      1 OAA         0.4800    0.7980    0.0500 o         1 P47     -0.829300
      2 CAP         1.1480   -0.2510   -0.1650 c         1 P47      0.899800
      3 OAB         0.9590   -1.3520    0.4290 o         1 P47     -0.829300
      4 CAD         2.1860   -0.2000   -1.2640 ce        1 P47     -0.135200
      5 CAQ         3.5210   -0.0800   -1.1740 cf        1 P47     -0.146400
      6 CAT         4.2760   -0.0100    0.0760 ca        1 P47      0.000200
      7 CAK         3.8990   -0.7820    1.1880 ca        1 P47     -0.128500
      8 CAG         4.6440   -0.7310    2.3640 ca        1 P47     -0.144000
      9 CAE         5.7710    0.0850    2.4560 ca        1 P47     -0.157000
     10 CAF         6.1470    0.8620    1.3610 ca        1 P47     -0.144000
     11 CAJ         5.4070    0.8150    0.1820 ca        1 P47     -0.128500
     12 CAN         4.3340   -0.0260   -2.4320 c3        1 P47     -0.024200
     13 CAO         4.2030    1.3260   -3.1170 c3        1 P47     -0.049100
     14 CAS         5.0680    1.4270   -4.3230 ca        1 P47     -0.052300
     15 CAL         4.5090    1.4640   -5.6050 ca        1 P47     -0.125000
     16 CAM         6.4620    1.4970   -4.1860 ca        1 P47     -0.125000
     17 CAI         7.2830    1.6030   -5.3050 ca        1 P47     -0.126000
     18 CAR         6.7070    1.6400   -6.5780 ca        1 P47      0.003400
     19 CLAC        7.7060    1.7720   -7.9540 cl        1 P47     -0.124400
     20 CAH         5.3200    1.5710   -6.7330 ca        1 P47     -0.126000
     21 HAD         1.7250   -0.2490   -2.2670 ha        1 P47      0.097000
     22 HAK         2.9860   -1.4070    1.1260 ha        1 P47      0.156500
     23 HAG         4.3320   -1.3360    3.2280 ha        1 P47      0.112500
     24 HAE         6.3540    0.1220    3.3850 ha        1 P47      0.107000
     25 HAF         7.0260    1.5170    1.4290 ha        1 P47      0.112500
     26 HAJ         5.7070    1.4420   -0.6700 ha        1 P47      0.156500
     27 HAN         3.9850   -0.8280   -3.1360 hc        1 P47      0.035200
     28 HANA        5.4160   -0.2300   -2.2120 hc        1 P47      0.035200
     29 HAO         4.4860    2.1370   -2.3920 hc        1 P47      0.060200
     30 HAOA        3.1270    1.4920   -3.3910 hc        1 P47      0.060200
     31 HAL         3.4160    1.4080   -5.7250 ha        1 P47      0.141500
     32 HAM         6.9060    1.4640   -3.1790 ha        1 P47      0.141500
     33 HAI         8.3750    1.6560   -5.1860 ha        1 P47      0.138000
     34 HAH         4.8700    1.5980   -7.7360 ha        1 P47      0.138000
@<TRIPOS>BOND
     1    1    2 1   
     2    2    3 1   
     3    2    4 1   
     4    4    5 2   
     5    4   21 1   
     6    5    6 1   
     7    5   12 1   
     8    6    7 ar  
     9    6   11 ar  
    10    7    8 ar  
    11    7   22 1   
    12    8    9 ar  
    13    8   23 1   
    14    9   10 ar  
    15    9   24 1   
    16   10   11 ar  
    17   10   25 1   
    18   11   26 1   
    19   12   13 1   
    20   12   27 1   
    21   12   28 1   
    22   13   14 1   
    23   13   29 1   
    24   13   30 1   
    25   14   15 ar  
    26   14   16 ar  
    27   15   20 ar  
    28   15   31 1   
    29   16   17 ar  
    30   16   32 1   
    31   17   18 ar  
    32   17   33 1   
    33   18   19 1   
    34   18   20 ar  
    35   20   34 1   
@<TRIPOS>SUBSTRUCTURE
     1 P47         1 TEMP              0 ****  ****    0 ROOT
