@<TRIPOS>MOLECULE
molecule
   34    35     1     0     0
SMALL
bcc


@<TRIPOS>ATOM
      1 OAA          0.0000     0.0000     0.0000 o          1 P47      -0.809800
      2 CAP          1.3490     0.0000     0.0000 c          1 P47       0.849800
      3 OAB          1.9570     0.0000     1.0530 o          1 P47      -0.809800
      4 CAD          2.0790    -0.0000    -1.2660 ce         1 P47      -0.575200
      5 CAQ          3.4300    -0.0000    -1.2670 cf         1 P47       0.045600
      6 CAT          4.1650     0.0000     0.0080 ca         1 P47      -0.061800
      7 CAK          4.0740    -1.0950     0.8720 ca         1 P47      -0.082500
      8 CAG          4.7660    -1.0880     2.0650 ca         1 P47      -0.141500
      9 CAE          5.5500     0.0010     2.4070 ca         1 P47      -0.140000
     10 CAF          5.6450     1.0880     1.5570 ca         1 P47      -0.141500
     11 CAJ          4.9630     1.0940     0.3590 ca         1 P47      -0.082500
     12 CAN          4.1830    -0.0000    -2.5720 c3         1 P47      -0.026200
     13 CAO          4.5460     1.4360    -2.9510 c3         1 P47      -0.037100
     14 CAS          5.3000     1.4360    -4.2560 ca         1 P47      -0.062300
     15 CAL          4.6130     1.5400    -5.4500 ca         1 P47      -0.118000
     16 CAM          6.6790     1.3370    -4.2570 ca         1 P47      -0.118000
     17 CAI          7.3700     1.3380    -5.4540 ca         1 P47      -0.125500
     18 CAR          6.6830     1.4370    -6.6510 ca         1 P47       0.012400
     19 ClAC         7.5510     1.4370    -8.1530 cl         1 P47      -0.137400
     20 CAH          5.3030     1.5400    -6.6480 ca         1 P47      -0.125500
     21 HAD          1.9340    -0.8750    -0.6440 ha         1 P47       0.348000
     22 HAK          3.4610    -1.9480     0.6050 ha         1 P47       0.120000
     23 HAG          4.6970    -1.9360     2.7360 ha         1 P47       0.109000
     24 HAE          6.0900     0.0020     3.3460 ha         1 P47       0.104000
     25 HAF          6.2620     1.9350     1.8310 ha         1 P47       0.109000
     26 HAJ          5.0390     1.9460    -0.3050 ha         1 P47       0.120000
     27 HAN          5.0880    -0.5860    -2.4660 hc         1 P47       0.047700
     28 HANA         3.5620    -0.4320    -3.3470 hc         1 P47       0.047700
     29 HAO          5.1670     1.8680    -2.1750 hc         1 P47       0.061700
     30 HAOA         3.6410     2.0220    -3.0570 hc         1 P47       0.061700
     31 HAL          3.5350     1.6490    -5.4470 ha         1 P47       0.144500
     32 HAM          7.2200     1.2990    -3.3190 ha         1 P47       0.144500
     33 HAI          8.4510     1.2630    -5.4550 ha         1 P47       0.134500
     34 HAH          4.7910     1.6260    -7.5980 ha         1 P47       0.134500
@<TRIPOS>BOND
     1     1     2 1
     2     2     3 1
     3     2     4 1
     4     4     5 2
     5     5     6 1
     6     5    12 1
     7     6     7 ar
     8     6    11 ar
     9     7     8 ar
    10     8     9 ar
    11     9    10 ar
    12    10    11 ar
    13    12    13 1
    14    13    14 1
    15    14    15 ar
    16    14    16 ar
    17    15    20 ar
    18    16    17 ar
    19    17    18 ar
    20    18    19 1
    21    18    20 ar
    22     4    21 1
    23     7    22 1
    24     8    23 1
    25     9    24 1
    26    10    25 1
    27    11    26 1
    28    12    27 1
    29    12    28 1
    30    13    29 1
    31    13    30 1
    32    15    31 1
    33    16    32 1
    34    17    33 1
    35    20    34 1
@<TRIPOS>SUBSTRUCTURE
     1 P47         1 TEMP              0 ****  ****    0 ROOT
