@<TRIPOS>MOLECULE
P48
   66    70     1     0     0
SMALL
bcc


@<TRIPOS>ATOM
      1 O1           0.0000     0.0000     0.0000 o          1 P48      -0.641100
      2 C2           1.2160     0.0000     0.0000 c          1 P48       0.531600
      3 N3           1.8900     0.0000     1.1670 ns         1 P48      -0.189900
      4 C4           1.1570     0.0010     2.4360 c3         1 P48       0.084300
      5 C5           1.9550    -0.0060    -1.2790 cc         1 P48       0.275800
      6 N6           2.5660    -1.0450    -1.8310 nd         1 P48      -0.642800
      7 N7           3.1170    -0.7060    -2.9470 na         1 P48       0.674400
      8 C8           3.8670    -1.6070    -3.8260 c3         1 P48      -0.017400
      9 C9           2.8970     0.6020    -3.1850 cd         1 P48      -0.410800
     10 C10          2.1350     1.0780    -2.1380 cc         1 P48      -0.199600
     11 C11          3.2790     1.5010    -4.2870 ca         1 P48       0.572800
     12 C12          3.1420     2.8790    -4.0700 ca         1 P48      -0.376900
     13 C13          2.6770     3.4200    -2.7480 c3         1 P48       0.058900
     14 C14          1.6530     2.4980    -2.0720 c3         1 P48       0.031300
     15 C15          1.4980     2.9140    -0.6070 c3         1 P48      -0.005600
     16 C16          0.3000     2.6090    -2.7770 c3         1 P48      -0.005600
     17 N17          3.7340     1.0570    -5.4490 nb         1 P48      -0.705000
     18 C18          4.0410     1.9150    -6.4140 ca         1 P48       0.705900
     19 N19          3.9020     3.2220    -6.2500 nb         1 P48      -0.687000
     20 C20          3.4630     3.7320    -5.1090 ca         1 P48       0.489200
     21 N21          4.5170     1.4320    -7.6220 nu         1 P48      -0.286300
     22 C22          4.7280     2.3090    -8.6930 ca         1 P48      -0.029400
     23 C23          5.8040     2.1130    -9.5490 ca         1 P48      -0.088500
     24 C24          6.0120     2.9790   -10.6050 ca         1 P48      -0.129500
     25 C25          5.1450     4.0430   -10.8110 ca         1 P48       0.012600
     26 C26          4.0690     4.2380    -9.9550 ca         1 P48      -0.129500
     27 C27          3.8580     3.3700    -8.9020 ca         1 P48      -0.088500
     28 N28          5.3560     4.9200   -11.8810 nh         1 P48      -0.364000
     29 C29          4.3270     5.9680   -11.9140 c3         1 P48       0.135800
     30 C30          4.6380     6.9500   -13.0460 c3         1 P48       0.153300
     31 N31          4.6850     6.2220   -14.3220 n3         1 P48      -0.549600
     32 C32          4.9070     7.1420   -15.4450 c3         1 P48       0.189100
     33 C33          5.7140     5.1730   -14.2900 c3         1 P48       0.153300
     34 C34          5.4030     4.1930   -13.1580 c3         1 P48       0.135800
     35 H3           2.8900    -0.0350     1.1680 hn         1 P48       0.174500
     36 H41C         0.5440     0.8910     2.4980 h1         1 P48       0.008700
     37 H42C         1.8610    -0.0110     3.2590 h1         1 P48       0.008700
     38 H43C         0.5250    -0.8780     2.4880 h1         1 P48       0.008700
     39 H81C         3.9530    -2.5800    -3.3570 h1         1 P48       0.034700
     40 H82C         3.3460    -1.7070    -4.7710 h1         1 P48       0.034700
     41 H83C         4.8560    -1.2010    -4.0000 h1         1 P48       0.034700
     42 H131         3.5420     3.4830    -2.0980 hc         1 P48       0.027700
     43 H132         2.1910     4.3700    -2.9350 hc         1 P48       0.027700
     44 H20          3.3550     4.8040    -4.9930 h4         1 P48      -0.013900
     45 H151         0.6140     2.4480    -0.1910 hc         1 P48       0.012700
     46 H152         2.3700     2.5990    -0.0480 hc         1 P48       0.012700
     47 H153         1.4000     3.9920    -0.5470 hc         1 P48       0.012700
     48 H161        -0.4510     2.0800    -2.2030 hc         1 P48       0.012700
     49 H162         0.3710     2.1730    -3.7660 hc         1 P48       0.012700
     50 H163         0.0210     3.6530    -2.8610 hc         1 P48       0.012700
     51 H21          4.6860     0.4520    -7.7370 hn         1 P48       0.289800
     52 H23          6.4810     1.2820    -9.3870 ha         1 P48       0.116000
     53 H27          3.0190     3.5230    -8.2340 ha         1 P48       0.116000
     54 H24          6.8520     2.8270   -11.2720 ha         1 P48       0.119000
     55 H26          3.3910     5.0680   -10.1180 ha         1 P48       0.119000
     56 H291         4.3220     6.4980   -10.9690 h1         1 P48       0.023950
     57 H292         3.3580     5.5160   -12.0860 h1         1 P48       0.023950
     58 H341         6.1780     3.4370   -13.1130 h1         1 P48       0.023950
     59 H342         4.4440     3.7240   -13.3400 h1         1 P48       0.023950
     60 H301         3.8640     7.7060   -13.0910 h1         1 P48       0.014950
     61 H302         5.5980     7.4190   -12.8640 h1         1 P48       0.014950
     62 H321         5.8640     7.6360   -15.3230 h1         1 P48       0.000700
     63 H322         4.9040     6.5850   -16.3740 h1         1 P48       0.000700
     64 H323         4.1180     7.8840   -15.4660 h1         1 P48       0.000700
     65 H331         5.7180     4.6430   -15.2350 h1         1 P48       0.014950
     66 H332         6.6840     5.6250   -14.1190 h1         1 P48       0.014950
@<TRIPOS>BOND
     1     1     2 2   
     2     2     3 1   
     3     2     5 1   
     4     3     4 1   
     5     3    35 1   
     6     4    36 1   
     7     4    37 1   
     8     4    38 1   
     9     5     6 2   
    10     5    10 1   
    11     6     7 1   
    12     7     8 1   
    13     7     9 1   
    14     8    39 1   
    15     8    40 1   
    16     8    41 1   
    17     9    10 2   
    18     9    11 1   
    19    10    14 1   
    20    11    12 ar  
    21    11    17 ar  
    22    12    13 1   
    23    12    20 ar  
    24    13    14 1   
    25    13    42 1   
    26    13    43 1   
    27    14    15 1   
    28    14    16 1   
    29    15    45 1   
    30    15    46 1   
    31    15    47 1   
    32    16    48 1   
    33    16    49 1   
    34    16    50 1   
    35    17    18 ar  
    36    18    19 ar  
    37    18    21 1   
    38    19    20 ar  
    39    20    44 1   
    40    21    22 1   
    41    21    51 1   
    42    22    23 ar  
    43    22    27 ar  
    44    23    24 ar  
    45    23    52 1   
    46    24    25 ar  
    47    24    54 1   
    48    25    26 ar  
    49    25    28 1   
    50    26    27 ar  
    51    26    55 1   
    52    27    53 1   
    53    28    29 1   
    54    28    34 1   
    55    29    30 1   
    56    29    56 1   
    57    29    57 1   
    58    30    31 1   
    59    30    60 1   
    60    30    61 1   
    61    31    32 1   
    62    31    33 1   
    63    32    62 1   
    64    32    63 1   
    65    32    64 1   
    66    33    34 1   
    67    33    65 1   
    68    33    66 1   
    69    34    58 1   
    70    34    59 1   
@<TRIPOS>SUBSTRUCTURE
     1 P48         1 TEMP              0 ****  ****    0 ROOT
