@<TRIPOS>MOLECULE
molecule
   38    41     1     0     0
SMALL
bcc


@<TRIPOS>ATOM
      1 C1           0.0000     0.0000     0.0000 ca         1 P49       0.478200
      2 N2           1.3240     0.0000     0.0000 nb         1 P49      -0.811000
      3 C3           2.0160     0.0000     1.1310 ca         1 P49       0.922900
      4 N4           1.4130    -0.0180     2.3130 nb         1 P49      -0.804000
      5 C5          -0.6720    -0.0010     1.2080 ca         1 P49      -0.357900
      6 C6           0.0910    -0.0370     2.3840 ca         1 P49       0.614800
      7 C7          -2.7630    -0.7010     2.4250 c3         1 P49       0.002900
      8 C8          -2.1700     0.0790     1.2530 c3         1 P49      -0.027100
      9 C9          -1.9860    -0.4070     3.6750 cc         1 P49      -0.197600
     10 C10         -0.6410    -0.1060     3.6600 cd         1 P49      -0.277800
     11 N11         -0.2630     0.0770     4.9410 na         1 P49       0.151400
     12 N12         -1.2810    -0.0730     5.7200 nd         1 P49      -0.483800
     13 C13         -2.3650    -0.3670     5.0180 cc         1 P49       0.312800
     14 C14          1.0970     0.3980     5.3810 c3         1 P49       0.064600
     15 N15          3.4000     0.0200     1.0770 nu         1 P49      -0.763300
     16 C16          4.0540    -0.0780    -0.1540 ca         1 P49       0.178600
     17 C17          5.2540     0.5900    -0.3590 ca         1 P49      -0.150500
     18 C18          5.8970     0.4920    -1.5780 ca         1 P49      -0.114000
     19 C19          5.3480    -0.2710    -2.5920 ca         1 P49      -0.162000
     20 C20          4.1530    -0.9380    -2.3900 ca         1 P49      -0.114000
     21 C21          3.5080    -0.8480    -1.1730 ca         1 P49      -0.150500
     22 C22         -3.7190    -0.6100     5.5540 c          1 P49       0.808100
     23 O23         -3.9400    -0.5380     6.8820 o          1 P49      -0.824300
     24 O24         -4.6330    -0.8730     4.7990 o          1 P49      -0.824300
     25 H1          -0.5490    -0.0000    -0.9340 h4         1 P49       0.023100
     26 H15          3.9330     0.0880     1.9220 hn         1 P49       0.461800
     27 H81C        -2.5490    -0.3640     0.3400 hc         1 P49       0.047200
     28 H82C        -2.4380     1.1210     1.3850 hc         1 P49       0.047200
     29 H71C        -3.7890    -0.3840     2.5710 hc         1 P49       0.072200
     30 H72C        -2.6900    -1.7600     2.2110 hc         1 P49       0.072200
     31 H141         1.4330     1.3010     4.8850 h1         1 P49       0.049700
     32 H142         1.7610    -0.4200     5.1290 h1         1 P49       0.049700
     33 H143         1.1030     0.5510     6.4530 h1         1 P49       0.049700
     34 H17          5.6850     1.1870     0.4350 ha         1 P49       0.144500
     35 H21          2.5720    -1.3710    -1.0160 ha         1 P49       0.144500
     36 H18          6.8340     1.0120    -1.7400 ha         1 P49       0.124000
     37 H19          5.8530    -0.3450    -3.5470 ha         1 P49       0.120000
     38 H20          3.7270    -1.5360    -3.1860 ha         1 P49       0.124000
@<TRIPOS>BOND
     1     1     2 ar
     2     1     5 ar
     3     2     3 ar
     4     3     4 ar
     5     3    15 1
     6     4     6 ar
     7     5     6 ar
     8     5     8 1
     9     6    10 1
    10     7     8 1
    11     7     9 1
    12     9    10 2
    13     9    13 1
    14    10    11 1
    15    11    12 1
    16    11    14 1
    17    12    13 2
    18    13    22 1
    19    15    16 1
    20    16    17 ar
    21    16    21 ar
    22    17    18 ar
    23    18    19 ar
    24    19    20 ar
    25    20    21 ar
    26    22    23 1
    27    22    24 1
    28     1    25 1
    29    15    26 1
    30     8    27 1
    31     8    28 1
    32     7    29 1
    33     7    30 1
    34    14    31 1
    35    14    32 1
    36    14    33 1
    37    17    34 1
    38    21    35 1
    39    18    36 1
    40    19    37 1
    41    20    38 1
@<TRIPOS>SUBSTRUCTURE
     1 P49         1 TEMP              0 ****  ****    0 ROOT
