@<TRIPOS>MOLECULE
P49
   38    41     1     0     0
SMALL
bcc


@<TRIPOS>ATOM
      1 C1           0.0000     0.0000     0.0000 ca         1 P49       0.467200
      2 N2           1.3240     0.0000     0.0000 nb         1 P49      -0.712000
      3 C3           2.0160     0.0000     1.1310 ca         1 P49       0.694900
      4 N4           1.4130    -0.0180     2.3130 nb         1 P49      -0.708000
      5 C5          -0.6720    -0.0010     1.2080 ca         1 P49      -0.363900
      6 C6           0.0910    -0.0370     2.3840 ca         1 P49       0.604800
      7 C7          -2.7630    -0.7010     2.4250 c3         1 P49       0.064900
      8 C8          -2.1700     0.0790     1.2530 c3         1 P49       0.046900
      9 C9          -1.9860    -0.4070     3.6750 cc         1 P49      -0.207600
     10 C10         -0.6410    -0.1060     3.6600 cd         1 P49      -0.477800
     11 N11         -0.2630     0.0770     4.9410 na         1 P49       0.621400
     12 N12         -1.2810    -0.0730     5.7200 nd         1 P49      -0.614800
     13 C13         -2.3650    -0.3670     5.0180 cc         1 P49       0.324800
     14 C14          1.0970     0.3980     5.3810 c3         1 P49      -0.003400
     15 N15          3.4000     0.0200     1.0770 nu         1 P49      -0.302300
     16 C16          4.0540    -0.0780    -0.1540 ca         1 P49       0.022600
     17 C17          5.2540     0.5900    -0.3590 ca         1 P49      -0.131000
     18 C18          5.8970     0.4920    -1.5780 ca         1 P49      -0.083500
     19 C19          5.3480    -0.2710    -2.5920 ca         1 P49      -0.138000
     20 C20          4.1530    -0.9380    -2.3900 ca         1 P49      -0.083500
     21 C21          3.5080    -0.8480    -1.1730 ca         1 P49      -0.131000
     22 C22         -3.7190    -0.6100     5.5540 c          1 P49       0.897100
     23 O23         -3.9400    -0.5380     6.8820 o          1 P49      -0.878800
     24 O24         -4.6330    -0.8730     4.7990 o          1 P49      -0.878800
     25 H1          -0.5490    -0.0000    -0.9340 h4         1 P49      -0.020900
     26 H15          3.9330     0.0880     1.9220 hn         1 P49       0.289800
     27 H81C        -2.5490    -0.3640     0.3400 hc         1 P49       0.016200
     28 H82C        -2.4380     1.1210     1.3850 hc         1 P49       0.016200
     29 H71C        -3.7890    -0.3840     2.5710 hc         1 P49       0.040200
     30 H72C        -2.6900    -1.7600     2.2110 hc         1 P49       0.040200
     31 H141         1.4330     1.3010     4.8850 h1         1 P49       0.019700
     32 H142         1.7610    -0.4200     5.1290 h1         1 P49       0.019700
     33 H143         1.1030     0.5510     6.4530 h1         1 P49       0.019700
     34 H17          5.6850     1.1870     0.4350 ha         1 P49       0.121500
     35 H21          2.5720    -1.3710    -1.0160 ha         1 P49       0.121500
     36 H18          6.8340     1.0120    -1.7400 ha         1 P49       0.095500
     37 H19          5.8530    -0.3450    -3.5470 ha         1 P49       0.096000
     38 H20          3.7270    -1.5360    -3.1860 ha         1 P49       0.095500
@<TRIPOS>BOND
     1     1     2 ar  
     2     1     5 ar  
     3     1    25 1   
     4     2     3 ar  
     5     3     4 ar  
     6     3    15 1   
     7     4     6 ar  
     8     5     6 ar  
     9     5     8 1   
    10     6    10 1   
    11     7     8 1   
    12     7     9 1   
    13     7    29 1   
    14     7    30 1   
    15     8    27 1   
    16     8    28 1   
    17     9    10 2   
    18     9    13 1   
    19    10    11 1   
    20    11    12 1   
    21    11    14 1   
    22    12    13 2   
    23    13    22 1   
    24    14    31 1   
    25    14    32 1   
    26    14    33 1   
    27    15    16 1   
    28    15    26 1   
    29    16    17 ar  
    30    16    21 ar  
    31    17    18 ar  
    32    17    34 1   
    33    18    19 ar  
    34    18    36 1   
    35    19    20 ar  
    36    19    37 1   
    37    20    21 ar  
    38    20    38 1   
    39    21    35 1   
    40    22    23 1   
    41    22    24 1   
@<TRIPOS>SUBSTRUCTURE
     1 P49         1 TEMP              0 ****  ****    0 ROOT
