@<TRIPOS>MOLECULE
molecule
   38    40     1     0     0
SMALL
bcc


@<TRIPOS>ATOM
      1 N1           0.0000     0.0000     0.0000 na         1 P4A      -0.040600
      2 N2           1.4000     0.0000     0.0000 nc         1 P4A      -0.491800
      3 C3           1.8150     0.0000     1.2470 cd         1 P4A       0.418800
      4 C4           0.6730     0.0000     2.0860 cd         1 P4A      -0.252300
      5 C5          -0.4260     0.0000     1.2800 cc         1 P4A      -0.059600
      6 C6           3.2290    -0.0010     1.6970 ca         1 P4A      -0.142500
      7 C7           0.6720     0.0000     3.5690 ca         1 P4A      -0.039000
      8 C8          -1.8620     0.0010     1.7370 c3         1 P4A      -0.026800
      9 C12          0.1980     1.1090     4.2680 ca         1 P4A      -0.082000
     10 C13          0.1990     1.1060     5.6470 ca         1 P4A      -0.192500
     11 C14          0.6730    -0.0000     6.3400 ca         1 P4A       0.137100
     12 C15          1.1450    -1.1050     5.6470 ca         1 P4A      -0.192500
     13 C16          1.1410    -1.1110     4.2670 ca         1 P4A      -0.082000
     14 C21          4.1460    -0.8890     1.1270 ca         1 P4A       0.155100
     15 C22          5.4640    -0.8850     1.5510 ca         1 P4A      -0.227000
     16 C23          5.8710    -0.0020     2.5390 ca         1 P4A       0.135100
     17 C24          4.9610     0.8810     3.1060 ca         1 P4A      -0.178000
     18 C25          3.6470     0.8880     2.6860 ca         1 P4A      -0.067000
     19 O29          7.1650     0.0000     2.9540 oh         1 P4A      -0.523100
     20 O30          3.7440    -1.7550     0.1590 oh         1 P4A      -0.498100
     21 O33          0.6730     0.0000     7.6990 os         1 P4A      -0.330900
     22 C34          1.1740    -1.1710     8.3480 c3         1 P4A       0.129700
     23 HN1         -0.5850    -0.0000    -0.8120 hn         1 P4A       0.329700
     24 H8          -2.5150    -0.0610     0.8750 hc         1 P4A       0.052367
     25 H8A         -2.0360    -0.8500     2.3840 hc         1 P4A       0.052367
     26 H8B         -2.0680     0.9160     2.2800 hc         1 P4A       0.052367
     27 H12         -0.1720     1.9720     3.7280 ha         1 P4A       0.138500
     28 H13         -0.1690     1.9680     6.1900 ha         1 P4A       0.138500
     29 H15          1.5120    -1.9680     6.1910 ha         1 P4A       0.138500
     30 H16          1.5100    -1.9750     3.7280 ha         1 P4A       0.138500
     31 H22          6.1770    -1.5720     1.1110 ha         1 P4A       0.145000
     32 H24          5.2850     1.5700     3.8760 ha         1 P4A       0.144000
     33 H25          2.9400     1.5770     3.1300 ha         1 P4A       0.150000
     34 HO29         7.2750    -0.6320     3.6450 ho         1 P4A       0.422000
     35 HO30         4.3410    -1.7110    -0.5690 ho         1 P4A       0.424000
     36 H34          1.1160    -1.0410     9.4220 h1         1 P4A       0.040700
     37 H34A         2.2060    -1.3300     8.0590 h1         1 P4A       0.040700
     38 H34B         0.5800    -2.0280     8.0550 h1         1 P4A       0.040700
@<TRIPOS>BOND
     1     1     2 1
     2     1     5 1
     3     2     3 2
     4     3     4 1
     5     3     6 1
     6     4     5 2
     7     4     7 1
     8     5     8 1
     9     6    14 ar
    10     6    18 ar
    11     7     9 ar
    12     7    13 ar
    13     9    10 ar
    14    10    11 ar
    15    11    12 ar
    16    11    21 1
    17    12    13 ar
    18    14    15 ar
    19    14    20 1
    20    15    16 ar
    21    16    17 ar
    22    16    19 1
    23    17    18 ar
    24    21    22 1
    25     1    23 1
    26     8    24 1
    27     8    25 1
    28     8    26 1
    29     9    27 1
    30    10    28 1
    31    12    29 1
    32    13    30 1
    33    15    31 1
    34    17    32 1
    35    18    33 1
    36    19    34 1
    37    20    35 1
    38    22    36 1
    39    22    37 1
    40    22    38 1
@<TRIPOS>SUBSTRUCTURE
     1 P4A         1 TEMP              0 ****  ****    0 ROOT
