@<TRIPOS>MOLECULE
P4A
   38    40     1     0     0
SMALL
bcc


@<TRIPOS>ATOM
      1 N1          0.1120    0.3590    0.0000 na        1 P4A     -0.015600
      2 N2          1.4360    0.2570   -0.0120 nc        1 P4A     -0.489800
      3 C3          1.8360    0.1220    1.2890 cd        1 P4A      0.381800
      4 C4          0.6710    0.1380    2.1640 cd        1 P4A     -0.186300
      5 C5         -0.4300    0.2900    1.2920 cc        1 P4A     -0.093600
      6 C6          3.2300    0.0070    1.6900 ca        1 P4A     -0.176500
      7 C7          0.6350    0.0020    3.5980 ca        1 P4A     -0.032000
      8 C8         -1.8680    0.3670    1.5860 c3        1 P4A     -0.037800
      9 C12        -0.2230    0.8040    4.3700 ca        1 P4A     -0.089500
     10 C13        -0.2740    0.6700    5.7510 ca        1 P4A     -0.181000
     11 C14         0.5450   -0.2850    6.3810 ca        1 P4A      0.120100
     12 C15         1.4060   -1.0910    5.6290 ca        1 P4A     -0.181000
     13 C16         1.4450   -0.9420    4.2440 ca        1 P4A     -0.089500
     14 C21         4.0310   -1.0740    1.2590 ca        1 P4A      0.180100
     15 C22         5.3790   -1.1690    1.6280 ca        1 P4A     -0.256000
     16 C23         5.9270   -0.1650    2.4360 ca        1 P4A      0.166100
     17 C24         5.1480    0.9160    2.8750 ca        1 P4A     -0.253000
     18 C25         3.8120    0.9910    2.4950 ca        1 P4A     -0.035000
     19 O29         7.2540   -0.3060    2.7690 oh        1 P4A     -0.497100
     20 O30         3.4320   -2.0370    0.4850 oh        1 P4A     -0.479100
     21 O33         0.4180   -0.3410    7.7560 os        1 P4A     -0.328900
     22 C34         1.2310   -1.3010    8.4210 c3        1 P4A      0.113700
     23 HN1        -0.3940    0.4320   -0.8500 hn        1 P4A      0.319700
     24 H8         -2.0600   -0.0560    2.6050 hc        1 P4A      0.055367
     25 H8A        -2.2120    1.4330    1.5750 hc        1 P4A      0.055367
     26 H8B        -2.4730   -0.2080    0.8410 hc        1 P4A      0.055367
     27 H12        -0.8570    1.5530    3.8720 ha        1 P4A      0.139000
     28 H13        -0.9410    1.2970    6.3590 ha        1 P4A      0.142000
     29 H15         2.0500   -1.8390    6.1120 ha        1 P4A      0.142000
     30 H16         2.1230   -1.5710    3.6450 ha        1 P4A      0.139000
     31 H22         6.0050   -2.0070    1.2930 ha        1 P4A      0.152000
     32 H24         5.5900    1.6970    3.5090 ha        1 P4A      0.137000
     33 H25         3.1960    1.8390    2.8340 ha        1 P4A      0.147000
     34 HO29        7.5060    0.4550    3.3130 ho        1 P4A      0.422000
     35 HO30        4.1140   -2.6710    0.2170 ho        1 P4A      0.419000
     36 H34         0.9620   -1.1680    9.5000 h1        1 P4A      0.043700
     37 H34A        0.9830   -2.3350    8.0780 h1        1 P4A      0.043700
     38 H34B        2.3140   -1.0840    8.2550 h1        1 P4A      0.043700
@<TRIPOS>BOND
     1    1    2 1   
     2    1    5 1   
     3    1   23 1   
     4    2    3 2   
     5    3    4 1   
     6    3    6 1   
     7    4    5 2   
     8    4    7 1   
     9    5    8 1   
    10    6   14 ar  
    11    6   18 ar  
    12    7    9 ar  
    13    7   13 ar  
    14    8   24 1   
    15    8   25 1   
    16    8   26 1   
    17    9   10 ar  
    18    9   27 1   
    19   10   11 ar  
    20   10   28 1   
    21   11   12 ar  
    22   11   21 1   
    23   12   13 ar  
    24   12   29 1   
    25   13   30 1   
    26   14   15 ar  
    27   14   20 1   
    28   15   16 ar  
    29   15   31 1   
    30   16   17 ar  
    31   16   19 1   
    32   17   18 ar  
    33   17   32 1   
    34   18   33 1   
    35   19   34 1   
    36   20   35 1   
    37   21   22 1   
    38   22   36 1   
    39   22   37 1   
    40   22   38 1   
@<TRIPOS>SUBSTRUCTURE
     1 P4A         1 TEMP              0 ****  ****    0 ROOT
