@<TRIPOS>MOLECULE
P4C
   50    49     1     0     0
SMALL
bcc


@<TRIPOS>ATOM
      1 O1         -0.6670    2.1350    0.4560 oh        1 P4C     -0.599800
      2 C2         -1.0510    0.8240    0.1000 c3        1 P4C      0.131400
      3 C3          0.1580   -0.0450   -0.2310 c3        1 P4C      0.087400
      4 O4          0.8840   -0.1950    0.9870 os        1 P4C     -0.438600
      5 C5          2.0830   -0.9490    0.8160 c3        1 P4C      0.128400
      6 C6          2.6480   -1.1880    2.2120 c3        1 P4C      0.127400
      7 O7          2.4140   -2.5610    2.5140 os        1 P4C     -0.428600
      8 C8          2.7530   -2.8840    3.8620 c3        1 P4C      0.127400
      9 C9          2.6320   -4.3990    3.9880 c3        1 P4C      0.127400
     10 O10         3.9630   -4.9070    4.0520 os        1 P4C     -0.428600
     11 C11         3.9990   -6.3320    4.0170 c3        1 P4C      0.127400
     12 C12         5.4460   -6.7360    4.2760 c3        1 P4C      0.127400
     13 O13         5.4940   -7.2430    5.6080 os        1 P4C     -0.429600
     14 C14         6.8290   -7.4990    6.0400 c3        1 P4C      0.127400
     15 C15         6.7200   -8.1850    7.3980 c3        1 P4C      0.127400
     16 O16         7.0340   -9.5600    7.1840 os        1 P4C     -0.428600
     17 C17         6.8020  -10.3540    8.3440 c3        1 P4C      0.127400
     18 C18         7.3440  -11.7450    8.0310 c3        1 P4C      0.128400
     19 O19         8.5750  -11.8680    8.7450 os        1 P4C     -0.426600
     20 C20         9.2730  -13.0620    8.4110 c3        1 P4C      0.005400
     21 C21        10.5430  -13.0680    9.2240 c         1 P4C      0.570900
     22 O22        11.3390  -14.0040    9.1680 o         1 P4C     -0.525100
     23 HO1        -0.0580    2.0570    1.2020 ho        1 P4C      0.412000
     24 H21A       -1.6440    0.3560    0.9300 h1        1 P4C      0.053700
     25 H22        -1.6930    0.9440   -0.8120 h1        1 P4C      0.053700
     26 H31         0.8080    0.4520   -0.9990 h1        1 P4C      0.039200
     27 H32        -0.1690   -1.0500   -0.6060 h1        1 P4C      0.039200
     28 H51         1.8590   -1.9220    0.3050 h1        1 P4C      0.045200
     29 H52         2.8050   -0.3530    0.1970 h1        1 P4C      0.045200
     30 H61         3.7530   -0.9910    2.2260 h1        1 P4C      0.043700
     31 H62         2.1390   -0.5310    2.9670 h1        1 P4C      0.043700
     32 H81         2.0310   -2.3740    4.5540 h1        1 P4C      0.044200
     33 H82         3.7990   -2.5470    4.0910 h1        1 P4C      0.044200
     34 H91         2.0880   -4.6700    4.9310 h1        1 P4C      0.044200
     35 H92         2.0930   -4.8310    3.1040 h1        1 P4C      0.044200
     36 H111        3.3200   -6.7580    4.8030 h1        1 P4C      0.044200
     37 H112        3.6700   -6.6840    3.0040 h1        1 P4C      0.044200
     38 H121        6.1310   -5.8520    4.1710 h1        1 P4C      0.044200
     39 H122        5.7600   -7.5440    3.5630 h1        1 P4C      0.044200
     40 H141        7.3570   -8.1580    5.3020 h1        1 P4C      0.044200
     41 H142        7.3780   -6.5250    6.1380 h1        1 P4C      0.044200
     42 H151        5.6820   -8.0840    7.8130 h1        1 P4C      0.044200
     43 H152        7.4600   -7.7470    8.1180 h1        1 P4C      0.044200
     44 H171        5.6990  -10.4030    8.5440 h1        1 P4C      0.045200
     45 H172        7.3290   -9.9110    9.2310 h1        1 P4C      0.045200
     46 H181        7.5210  -11.8660    6.9300 h1        1 P4C      0.046700
     47 H182        6.6330  -12.5340    8.3910 h1        1 P4C      0.046700
     48 H201        9.5170  -13.0750    7.3140 h1        1 P4C      0.061700
     49 H202        8.6460  -13.9600    8.6610 h1        1 P4C      0.061700
     50 H21        10.7060  -12.1760    9.8680 h4        1 P4C      0.021200
@<TRIPOS>BOND
     1    1    2 1   
     2    1   23 1   
     3    2    3 1   
     4    2   24 1   
     5    2   25 1   
     6    3    4 1   
     7    3   26 1   
     8    3   27 1   
     9    4    5 1   
    10    5    6 1   
    11    5   28 1   
    12    5   29 1   
    13    6    7 1   
    14    6   30 1   
    15    6   31 1   
    16    7    8 1   
    17    8    9 1   
    18    8   32 1   
    19    8   33 1   
    20    9   10 1   
    21    9   34 1   
    22    9   35 1   
    23   10   11 1   
    24   11   12 1   
    25   11   36 1   
    26   11   37 1   
    27   12   13 1   
    28   12   38 1   
    29   12   39 1   
    30   13   14 1   
    31   14   15 1   
    32   14   40 1   
    33   14   41 1   
    34   15   16 1   
    35   15   42 1   
    36   15   43 1   
    37   16   17 1   
    38   17   18 1   
    39   17   44 1   
    40   17   45 1   
    41   18   19 1   
    42   18   46 1   
    43   18   47 1   
    44   19   20 1   
    45   20   21 1   
    46   20   48 1   
    47   20   49 1   
    48   21   22 2   
    49   21   50 1   
@<TRIPOS>SUBSTRUCTURE
     1 P4C         1 TEMP              0 ****  ****    0 ROOT
