@<TRIPOS>MOLECULE
molecule
   50    49     1     0     0
SMALL
bcc


@<TRIPOS>ATOM
      1 O1           0.0000     0.0000     0.0000 oh         1 P4C      -0.598800
      2 C2           1.4280     0.0000     0.0000 c3         1 P4C       0.142400
      3 C3           1.9390     0.0000     1.4420 c3         1 P4C       0.128400
      4 O4           1.4620    -1.1660     2.1160 os         1 P4C      -0.381600
      5 C5           1.9700    -1.1080     3.4500 c3         1 P4C       0.126400
      6 C6           1.4950    -2.3350     4.2310 c3         1 P4C       0.126400
      7 O7           1.9720    -3.5200     3.5910 os         1 P4C      -0.384600
      8 C8           1.4980    -4.6250     4.3640 c3         1 P4C       0.126400
      9 C9           1.9740    -5.9330     3.7300 c3         1 P4C       0.126400
     10 O10          3.4030    -5.9530     3.6980 os         1 P4C      -0.384600
     11 C11          3.7850    -7.1920     3.0980 c3         1 P4C       0.126400
     12 C12          5.3100    -7.2780     3.0330 c3         1 P4C       0.126400
     13 O13          5.8480    -7.2010     4.3540 os         1 P4C      -0.384600
     14 C14          7.2690    -7.2870     4.2270 c3         1 P4C       0.126400
     15 C15          7.9110    -7.2130     5.6130 c3         1 P4C       0.126400
     16 O16          7.4390    -8.2960     6.4150 os         1 P4C      -0.385600
     17 C17          8.0710    -8.1710     7.6920 c3         1 P4C       0.126400
     18 C18          7.6050    -9.3080     8.6040 c3         1 P4C       0.128400
     19 O19          7.9570   -10.5630     8.0200 os         1 P4C      -0.387600
     20 C20          7.5000   -11.5780     8.9140 c3         1 P4C       0.003400
     21 C21          7.8420   -12.9340     8.3530 c          1 P4C       0.580900
     22 O22          8.5550   -13.6820     8.9760 o          1 P4C      -0.512100
     23 HO1         -0.3140     0.0920    -0.8840 ho         1 P4C       0.399000
     24 H21A         1.7890    -0.8840    -0.5110 h1         1 P4C       0.027700
     25 H22          1.7890     0.8840    -0.5110 h1         1 P4C       0.027700
     26 H31          3.0220    -0.0010     1.4410 h1         1 P4C       0.031700
     27 H32          1.5790     0.8850     1.9520 h1         1 P4C       0.031700
     28 H51          1.6080    -0.2090     3.9350 h1         1 P4C       0.032700
     29 H52          3.0530    -1.0930     3.4240 h1         1 P4C       0.032700
     30 H61          1.8800    -2.2910     5.2420 h1         1 P4C       0.033200
     31 H62          0.4120    -2.3490     4.2570 h1         1 P4C       0.033200
     32 H81          0.4150    -4.6090     4.3880 h1         1 P4C       0.032700
     33 H82          1.8830    -4.5510     5.3730 h1         1 P4C       0.032700
     34 H91          1.5890    -6.0060     2.7200 h1         1 P4C       0.033700
     35 H92          1.6140    -6.7700     4.3160 h1         1 P4C       0.033700
     36 H111         3.4020    -8.0140     3.6900 h1         1 P4C       0.033200
     37 H112         3.3780    -7.2480     2.0950 h1         1 P4C       0.033200
     38 H121         5.6000    -8.2180     2.5790 h1         1 P4C       0.033200
     39 H122         5.6930    -6.4570     2.4390 h1         1 P4C       0.033200
     40 H141         7.5340    -8.2260     3.7570 h1         1 P4C       0.033700
     41 H142         7.6280    -6.4650     3.6190 h1         1 P4C       0.033700
     42 H151         7.6470    -6.2730     6.0830 h1         1 P4C       0.033700
     43 H152         8.9880    -7.2780     5.5160 h1         1 P4C       0.033700
     44 H171         7.8040    -7.2190     8.1350 h1         1 P4C       0.035700
     45 H172         9.1460    -8.2230     7.5700 h1         1 P4C       0.035700
     46 H181         6.5300    -9.2550     8.7260 h1         1 P4C       0.037200
     47 H182         8.0830    -9.2130     9.5720 h1         1 P4C       0.037200
     48 H201         7.9810   -11.4530     9.8770 h1         1 P4C       0.048200
     49 H202         6.4260   -11.4970     9.0330 h1         1 P4C       0.048200
     50 H21          7.4390   -13.2410     7.3960 h4         1 P4C       0.008200
@<TRIPOS>BOND
     1     1     2 1
     2     1    23 1
     3     2     3 1
     4     2    24 1
     5     2    25 1
     6     3     4 1
     7     3    26 1
     8     3    27 1
     9     4     5 1
    10     5     6 1
    11     5    28 1
    12     5    29 1
    13     6     7 1
    14     6    30 1
    15     6    31 1
    16     7     8 1
    17     8     9 1
    18     8    32 1
    19     8    33 1
    20     9    10 1
    21     9    34 1
    22     9    35 1
    23    10    11 1
    24    11    12 1
    25    11    36 1
    26    11    37 1
    27    12    13 1
    28    12    38 1
    29    12    39 1
    30    13    14 1
    31    14    15 1
    32    14    40 1
    33    14    41 1
    34    15    16 1
    35    15    42 1
    36    15    43 1
    37    16    17 1
    38    17    18 1
    39    17    44 1
    40    17    45 1
    41    18    19 1
    42    18    46 1
    43    18    47 1
    44    19    20 1
    45    20    21 1
    46    20    48 1
    47    20    49 1
    48    21    22 2
    49    21    50 1
@<TRIPOS>SUBSTRUCTURE
     1 P4C         1 TEMP              0 ****  ****    0 ROOT
