@<TRIPOS>MOLECULE
P4G
   29    28     1     0     0
SMALL
bcc


@<TRIPOS>ATOM
      1 C8          0.1020    1.5570    0.1330 c3        1 P4G     -0.097100
      2 C7          1.0670    0.4040   -0.0180 c3        1 P4G      0.131400
      3 O4          1.9510    0.4540    1.1000 os        1 P4G     -0.428600
      4 C6          2.9290   -0.5830    1.0630 c3        1 P4G      0.126400
      5 C5          3.6920   -0.5050    2.3810 c3        1 P4G      0.127400
      6 O3          3.3430   -1.6740    3.1190 os        1 P4G     -0.429600
      7 C4          3.8650   -1.6500    4.4460 c3        1 P4G      0.127400
      8 C3          3.5710   -3.0190    5.0510 c3        1 P4G      0.126400
      9 O2          4.8300   -3.6720    5.2020 os        1 P4G     -0.428600
     10 C2          4.6890   -5.0260    5.6280 c3        1 P4G      0.131400
     11 C1          6.0830   -5.5900    5.7670 c3        1 P4G     -0.097100
     12 H81        -0.4670    1.4640    1.0890 hc        1 P4G      0.045033
     13 H82         0.6540    2.5270    0.1470 hc        1 P4G      0.045033
     14 H83        -0.6140    1.5550   -0.7220 hc        1 P4G      0.045033
     15 H71         1.6600    0.4950   -0.9680 h1        1 P4G      0.024700
     16 H72         0.5240   -0.5790   -0.0230 h1        1 P4G      0.024700
     17 H61         2.4320   -1.5830    0.9480 h1        1 P4G      0.041700
     18 H62         3.6200   -0.4060    0.1970 h1        1 P4G      0.041700
     19 H51         3.4050    0.4170    2.9530 h1        1 P4G      0.043200
     20 H52         4.7990   -0.5040    2.1950 h1        1 P4G      0.043200
     21 H41         4.9690   -1.4510    4.4260 h1        1 P4G      0.043200
     22 H42         3.3480   -0.8430    5.0300 h1        1 P4G      0.043200
     23 H31         2.9010   -3.6160    4.3780 h1        1 P4G      0.041700
     24 H32         3.0900   -2.9090    6.0580 h1        1 P4G      0.041700
     25 H21         4.0950   -5.5980    4.8660 h1        1 P4G      0.024700
     26 H22         4.1410   -5.0540    6.6090 h1        1 P4G      0.024700
     27 H11         6.6220   -5.5400    4.7910 hc        1 P4G      0.045033
     28 H12         6.6660   -5.0060    6.5190 hc        1 P4G      0.045033
     29 H13         6.0210   -6.6540    6.0970 hc        1 P4G      0.045033
@<TRIPOS>BOND
     1    1    2 1   
     2    1   12 1   
     3    1   13 1   
     4    1   14 1   
     5    2    3 1   
     6    2   15 1   
     7    2   16 1   
     8    3    4 1   
     9    4    5 1   
    10    4   17 1   
    11    4   18 1   
    12    5    6 1   
    13    5   19 1   
    14    5   20 1   
    15    6    7 1   
    16    7    8 1   
    17    7   21 1   
    18    7   22 1   
    19    8    9 1   
    20    8   23 1   
    21    8   24 1   
    22    9   10 1   
    23   10   11 1   
    24   10   25 1   
    25   10   26 1   
    26   11   27 1   
    27   11   28 1   
    28   11   29 1   
@<TRIPOS>SUBSTRUCTURE
     1 P4G         1 TEMP              0 ****  ****    0 ROOT
