@<TRIPOS>MOLECULE
molecule
   29    28     1     0     0
SMALL
bcc


@<TRIPOS>ATOM
      1 C8           0.0000     0.0000     0.0000 c3         1 P4G      -0.092100
      2 C7           1.5300     0.0000     0.0000 c3         1 P4G       0.122400
      3 O4           2.0070     0.0000     1.3470 os         1 P4G      -0.399600
      4 C6           3.4340    -0.0010     1.2800 c3         1 P4G       0.127400
      5 C5           4.0110     0.0010     2.6970 c3         1 P4G       0.125400
      6 O3           3.6630    -1.2200     3.3540 os         1 P4G      -0.386600
      7 C4           4.2280    -1.1590     4.6650 c3         1 P4G       0.125400
      8 C3           3.8900    -2.4430     5.4250 c3         1 P4G       0.127400
      9 O2           4.5270    -3.5530     4.7910 os         1 P4G      -0.399600
     10 C2           4.1760    -4.7160     5.5450 c3         1 P4G       0.122400
     11 C1           4.8290    -5.9480     4.9150 c3         1 P4G      -0.092100
     12 H81         -0.3610     0.0390    -1.0210 hc         1 P4G       0.043367
     13 H82         -0.3610     0.8640     0.5440 hc         1 P4G       0.043367
     14 H83         -0.3610    -0.9040     0.4760 hc         1 P4G       0.043367
     15 H71          1.8910    -0.8840    -0.5110 h1         1 P4G       0.023200
     16 H72          1.8910     0.8840    -0.5110 h1         1 P4G       0.023200
     17 H61          3.7710     0.8830     0.7520 h1         1 P4G       0.034200
     18 H62          3.7700    -0.8860     0.7540 h1         1 P4G       0.034200
     19 H51          5.0890     0.0890     2.6470 h1         1 P4G       0.032700
     20 H52          3.6050     0.8380     3.2520 h1         1 P4G       0.032700
     21 H41          5.3030    -1.0560     4.5910 h1         1 P4G       0.032700
     22 H42          3.8190    -0.3070     5.1950 h1         1 P4G       0.032700
     23 H31          2.8170    -2.5920     5.4230 h1         1 P4G       0.034200
     24 H32          4.2410    -2.3600     6.4470 h1         1 P4G       0.034200
     25 H21          4.5250    -4.6040     6.5640 h1         1 P4G       0.023200
     26 H22          3.1000    -4.8370     5.5420 h1         1 P4G       0.023200
     27 H11          4.5950    -6.8240     5.5090 hc         1 P4G       0.043367
     28 H12          4.4510    -6.0830     3.9090 hc         1 P4G       0.043367
     29 H13          5.9030    -5.8110     4.8830 hc         1 P4G       0.043367
@<TRIPOS>BOND
     1     1     2 1
     2     1    12 1
     3     1    13 1
     4     1    14 1
     5     2     3 1
     6     2    15 1
     7     2    16 1
     8     3     4 1
     9     4     5 1
    10     4    17 1
    11     4    18 1
    12     5     6 1
    13     5    19 1
    14     5    20 1
    15     6     7 1
    16     7     8 1
    17     7    21 1
    18     7    22 1
    19     8     9 1
    20     8    23 1
    21     8    24 1
    22     9    10 1
    23    10    11 1
    24    10    25 1
    25    10    26 1
    26    11    27 1
    27    11    28 1
    28    11    29 1
@<TRIPOS>SUBSTRUCTURE
     1 P4G         1 TEMP              0 ****  ****    0 ROOT
