@<TRIPOS>MOLECULE
molecule
  107   106     1     0     0
SMALL
bcc


@<TRIPOS>ATOM
      1 O1           0.0000     0.0000     0.0000 oh         1 P4K      -0.600800
      2 C1           1.4290     0.0000     0.0000 c3         1 P4K       0.143400
      3 C2           1.9390     0.0000     1.4430 c3         1 P4K       0.141400
      4 O2           1.5610    -1.2210     2.0810 os         1 P4K      -0.407600
      5 C3           1.9910    -1.3230     3.4400 c3         1 P4K       0.141400
      6 C4           1.5340    -2.6640     4.0200 c3         1 P4K       0.141400
      7 O3           2.1930    -3.7300     3.3330 os         1 P4K      -0.410600
      8 C5           1.8340    -5.0320     3.8010 c3         1 P4K       0.141400
      9 C6           2.5960    -6.0900     2.9990 c3         1 P4K       0.141400
     10 O4           3.9960    -5.9660     3.2580 os         1 P4K      -0.410600
     11 C7           4.8020    -6.9130     2.5550 c3         1 P4K       0.141400
     12 C8           6.2750    -6.6910     2.9060 c3         1 P4K       0.141400
     13 O5           6.4810    -6.9730     4.2920 os         1 P4K      -0.410600
     14 C9           7.8310    -6.7960     4.7260 c3         1 P4K       0.141400
     15 C10          7.9350    -7.1250     6.2170 c3         1 P4K       0.142400
     16 O6           7.6530    -8.5100     6.4190 os         1 P4K      -0.410600
     17 C11          7.7230    -8.9250     7.7850 c3         1 P4K       0.142400
     18 C12          7.4040   -10.4180     7.8820 c3         1 P4K       0.142400
     19 O7           8.4170   -11.1670     7.2070 os         1 P4K      -0.410600
     20 C13          8.2140   -12.5800     7.2390 c3         1 P4K       0.142400
     21 C14          9.3530   -13.2760     6.4900 c3         1 P4K       0.142400
     22 O8          10.5830   -13.0560     7.1840 os         1 P4K      -0.410600
     23 C15         11.7160   -13.6670     6.5650 c3         1 P4K       0.141400
     24 C16         12.9710   -13.3670     7.3890 c3         1 P4K       0.141400
     25 C17         13.9850   -13.7690     9.5230 c3         1 P4K       0.141400
     26 C18         13.7570   -14.4760    10.8600 c3         1 P4K       0.142400
     27 C19         13.5020   -16.6470    11.8440 c3         1 P4K       0.142400
     28 C20         13.4710   -18.1380    11.5020 c3         1 P4K       0.142400
     29 C21         14.8330   -19.9250    10.6670 c3         1 P4K       0.141400
     30 C22         16.2410   -20.2440    10.1650 c3         1 P4K       0.141400
     31 C23         18.5320   -20.3430    10.8630 c3         1 P4K       0.141400
     32 C24         19.4410   -20.1250    12.0750 c3         1 P4K       0.141400
     33 C25         19.9200   -20.9630    14.2680 c3         1 P4K       0.142400
     34 C26         19.4950   -22.0300    15.2790 c3         1 P4K       0.141400
     35 C27         19.4250   -24.4010    15.6250 c3         1 P4K       0.141400
     36 C28         19.7800   -25.7340    14.9640 c3         1 P4K       0.142400
     37 C29         21.6390   -27.0430    14.2040 c3         1 P4K       0.136400
     38 C30         23.1650   -27.0350    14.0960 c3         1 P4K      -0.090100
     39 O10         13.7120   -15.8890    10.6510 os         1 P4K      -0.410600
     40 O11         14.7530   -18.5420    11.0170 os         1 P4K      -0.410600
     41 O12         17.1780   -20.0690    11.2300 os         1 P4K      -0.410600
     42 O13         19.1230   -21.0800    13.0880 os         1 P4K      -0.410600
     43 O14         19.7860   -23.3260    14.7540 os         1 P4K      -0.409600
     44 O15         21.1980   -25.8280    14.8150 os         1 P4K      -0.421600
     45 O9          12.8590   -13.9890     8.6710 os         1 P4K      -0.410600
     46 H1          -0.3140     0.0810    -0.8850 ho         1 P4K       0.398000
     47 H2           1.7900     0.8850    -0.5110 h1         1 P4K       0.029200
     48 H3           1.7900    -0.8840    -0.5110 h1         1 P4K       0.029200
     49 H4           1.5080     0.8370     1.9780 h1         1 P4K       0.030200
     50 H5           3.0190     0.0890     1.4430 h1         1 P4K       0.030200
     51 H6           1.5600    -0.5140     4.0180 h1         1 P4K       0.031700
     52 H7           3.0720    -1.2620     3.4830 h1         1 P4K       0.031700
     53 H8           1.7820    -2.7050     5.0740 h1         1 P4K       0.031700
     54 H9           0.4620    -2.7630     3.8980 h1         1 P4K       0.031700
     55 H10          0.7690    -5.1800     3.6730 h1         1 P4K       0.032200
     56 H11          2.0880    -5.1220     4.8500 h1         1 P4K       0.032200
     57 H12          2.4110    -5.9440     1.9410 h1         1 P4K       0.031700
     58 H13          2.2600    -7.0770     3.2920 h1         1 P4K       0.031700
     59 H14          4.5110    -7.9170     2.8390 h1         1 P4K       0.031700
     60 H15          4.6630    -6.7850     1.4880 h1         1 P4K       0.031700
     61 H16          6.5430    -5.6610     2.7040 h1         1 P4K       0.031700
     62 H17          6.8930    -7.3490     2.3080 h1         1 P4K       0.031700
     63 H18          8.1310    -5.7680     4.5610 h1         1 P4K       0.031700
     64 H19          8.4810    -7.4560     4.1640 h1         1 P4K       0.031700
     65 H20          8.9370    -6.9060     6.5660 h1         1 P4K       0.031700
     66 H21          7.2220    -6.5260     6.7690 h1         1 P4K       0.031700
     67 H22          7.0050    -8.3630     8.3700 h1         1 P4K       0.031700
     68 H23          8.7210    -8.7430     8.1660 h1         1 P4K       0.031700
     69 H24          6.4430   -10.6130     7.4200 h1         1 P4K       0.031700
     70 H25          7.3700   -10.7130     8.9240 h1         1 P4K       0.031700
     71 H26          8.1970   -12.9190     8.2680 h1         1 P4K       0.031700
     72 H27          7.2700   -12.8200     6.7650 h1         1 P4K       0.031700
     73 H28          9.1530   -14.3390     6.4370 h1         1 P4K       0.031700
     74 H29          9.4260   -12.8720     5.4880 h1         1 P4K       0.031700
     75 H30         11.5660   -14.7390     6.5140 h1         1 P4K       0.031700
     76 H31         11.8380   -13.2720     5.5640 h1         1 P4K       0.031700
     77 H32         13.8420   -13.7550     6.8740 h1         1 P4K       0.031700
     78 H33         13.0730   -12.2960     7.5140 h1         1 P4K       0.031700
     79 H34         14.8770   -14.1650     9.0520 h1         1 P4K       0.031700
     80 H35         14.1080   -12.7060     9.6920 h1         1 P4K       0.031700
     81 H36         12.8190   -14.1450    11.2880 h1         1 P4K       0.031700
     82 H37         14.5680   -14.2370    11.5370 h1         1 P4K       0.031700
     83 H38         14.3070   -16.4530    12.5420 h1         1 P4K       0.031700
     84 H39         12.5580   -16.3600    12.2920 h1         1 P4K       0.031700
     85 H40         12.7240   -18.3180    10.7390 h1         1 P4K       0.031700
     86 H41         13.2250   -18.7070    12.3900 h1         1 P4K       0.031700
     87 H42         14.1130   -20.1420     9.8870 h1         1 P4K       0.031700
     88 H43         14.6140   -20.5310    11.5390 h1         1 P4K       0.031700
     89 H44         16.2770   -21.2700     9.8170 h1         1 P4K       0.031700
     90 H45         16.4930   -19.5780     9.3490 h1         1 P4K       0.031700
     91 H46         18.6160   -21.3700    10.5300 h1         1 P4K       0.031700
     92 H47         18.8320   -19.6780    10.0620 h1         1 P4K       0.031700
     93 H48         20.4760   -20.2460    11.7760 h1         1 P4K       0.031700
     94 H49         19.2920   -19.1240    12.4620 h1         1 P4K       0.031700
     95 H50         19.7810   -19.9790    14.7010 h1         1 P4K       0.031700
     96 H51         20.9640   -21.1010    14.0140 h1         1 P4K       0.031700
     97 H52         18.4310   -21.9470    15.4660 h1         1 P4K       0.031200
     98 H53         20.0370   -21.8860    16.2060 h1         1 P4K       0.031200
     99 H54         19.9650   -24.3060    16.5590 h1         1 P4K       0.030700
    100 H55         18.3590   -24.3670    15.8180 h1         1 P4K       0.030700
    101 H56         19.4270   -26.5500    15.5830 h1         1 P4K       0.031700
    102 H57         19.3100   -25.7900    13.9890 h1         1 P4K       0.031700
    103 H58         21.3280   -27.8410    14.8680 h1         1 P4K       0.019700
    104 H59         21.2080   -27.2020    13.2230 h1         1 P4K       0.019700
    105 H60         23.5010   -27.9660    13.6560 hc         1 P4K       0.043033
    106 H61         23.4780   -26.2070    13.4720 hc         1 P4K       0.043033
    107 H62         23.5960   -26.9260    15.0840 hc         1 P4K       0.043033
@<TRIPOS>BOND
     1     1     2 1
     2    10     9 1
     3    10    11 1
     4     8     9 1
     5     8     7 1
     6     2     3 1
     7    11    12 1
     8     7     6 1
     9     3     4 1
    10     6     5 1
    11     4     5 1
    12    12    13 1
    13    13    14 1
    14    14    15 1
    15    15    16 1
    16    16    17 1
    17    17    18 1
    18    19    18 1
    19    19    20 1
    20    20    21 1
    21    21    22 1
    22    22    23 1
    23    23    24 1
    24    24    45 1
    25    45    25 1
    26    25    26 1
    27    38    37 1
    28    44    36 1
    29    44    37 1
    30    36    35 1
    31    26    39 1
    32    39    27 1
    33    35    43 1
    34    27    28 1
    35    31    41 1
    36    31    32 1
    37    30    41 1
    38    30    29 1
    39    43    34 1
    40    42    32 1
    41    42    33 1
    42    40    29 1
    43    40    28 1
    44    34    33 1
    45     1    46 1
    46     2    47 1
    47     2    48 1
    48     3    49 1
    49     3    50 1
    50     5    51 1
    51     5    52 1
    52     6    53 1
    53     6    54 1
    54     8    55 1
    55     8    56 1
    56     9    57 1
    57     9    58 1
    58    11    59 1
    59    11    60 1
    60    12    61 1
    61    12    62 1
    62    14    63 1
    63    14    64 1
    64    15    65 1
    65    15    66 1
    66    17    67 1
    67    17    68 1
    68    18    69 1
    69    18    70 1
    70    20    71 1
    71    20    72 1
    72    21    73 1
    73    21    74 1
    74    23    75 1
    75    23    76 1
    76    24    77 1
    77    24    78 1
    78    25    79 1
    79    25    80 1
    80    26    81 1
    81    26    82 1
    82    27    83 1
    83    27    84 1
    84    28    85 1
    85    28    86 1
    86    29    87 1
    87    29    88 1
    88    30    89 1
    89    30    90 1
    90    31    91 1
    91    31    92 1
    92    32    93 1
    93    32    94 1
    94    33    95 1
    95    33    96 1
    96    34    97 1
    97    34    98 1
    98    35    99 1
    99    35   100 1
   100    36   101 1
   101    36   102 1
   102    37   103 1
   103    37   104 1
   104    38   105 1
   105    38   106 1
   106    38   107 1
@<TRIPOS>SUBSTRUCTURE
     1 P4K         1 TEMP              0 ****  ****    0 ROOT
