@<TRIPOS>MOLECULE
P4L
   28    30     1     0     0
SMALL
bcc


@<TRIPOS>ATOM
      1 N1          0.0220   -0.5310   -0.0180 nb        1 P4L     -0.759000
      2 C2          1.3510   -0.2110    0.0150 cp        1 P4L      0.635000
      3 N3          2.0960    0.0510    1.1290 nb        1 P4L     -0.680000
      4 C4          1.4510   -0.0270    2.3200 ca        1 P4L      0.460600
      5 C5          0.0790   -0.3630    2.4220 ca        1 P4L     -0.321900
      6 C6         -0.5930   -0.6030    1.1920 ca        1 P4L      0.667600
      7 O6         -1.9240   -0.9260    1.2610 oh        1 P4L     -0.606300
      8 CAB         3.3290    0.0250   -3.7310 ca        1 P4L     -0.236300
      9 CAC         2.3070    0.9320   -3.4550 ca        1 P4L     -0.097000
     10 CAD         3.6530   -0.9360   -2.7530 ca        1 P4L      0.393200
     11 CAE         1.6470    0.8580   -2.2260 ca        1 P4L     -0.209300
     12 CAF         1.4740    1.2710    4.4360 c3        1 P4L     -0.012300
     13 CAG         2.2000    0.2530    3.5910 c3        1 P4L     -0.134700
     14 CAH        -0.5940   -0.4720    3.7240 c3        1 P4L      0.054000
     15 NAI         3.0370   -1.0290   -1.5610 nb        1 P4L     -0.631000
     16 SAL        -0.1940    0.8420    4.8460 ss        1 P4L     -0.301200
     17 CAN         2.0500   -0.1350   -1.3120 cp        1 P4L      0.363300
     18 HO6        -2.2730   -1.0640    0.3630 ho        1 P4L      0.449000
     19 HAC         2.0200    1.6960   -4.1930 ha        1 P4L      0.142000
     20 HAD         4.4540   -1.6770   -2.9310 h4        1 P4L      0.027100
     21 HAE         0.8320    1.5500   -1.9750 ha        1 P4L      0.153000
     22 HAF         1.4620    2.2600    3.9140 h1        1 P4L      0.078200
     23 HAFA        2.0130    1.4030    5.4080 h1        1 P4L      0.078200
     24 HAG         2.2990   -0.7170    4.1520 hc        1 P4L      0.080700
     25 HAGA        3.2390    0.6240    3.3760 hc        1 P4L      0.080700
     26 HAH        -0.3230   -1.4480    4.2030 h1        1 P4L      0.091200
     27 HAHA       -1.7090   -0.4440    3.6070 h1        1 P4L      0.091200
     28 HAB         3.8730    0.0510   -4.6840 ha        1 P4L      0.146000
@<TRIPOS>BOND
     1    1    2 ar  
     2    1    6 ar  
     3    2    3 ar  
     4    2   17 1   
     5    3    4 ar  
     6    4    5 ar  
     7    4   13 1   
     8    5    6 ar  
     9    5   14 1   
    10    6    7 1   
    11    7   18 1   
    12    8    9 ar  
    13    8   10 ar  
    14    8   28 1   
    15    9   11 ar  
    16    9   19 1   
    17   10   15 ar  
    18   10   20 1   
    19   11   17 ar  
    20   11   21 1   
    21   12   13 1   
    22   12   16 1   
    23   12   22 1   
    24   12   23 1   
    25   13   24 1   
    26   13   25 1   
    27   14   16 1   
    28   14   26 1   
    29   14   27 1   
    30   15   17 ar  
@<TRIPOS>SUBSTRUCTURE
     1 P4L         1 TEMP              0 ****  ****    0 ROOT
