@<TRIPOS>MOLECULE
molecule
   28    30     1     0     0
SMALL
bcc


@<TRIPOS>ATOM
      1 N1           0.0000     0.0000     0.0000 nb         1 P4L      -0.808000
      2 C2           1.3260     0.0000     0.0000 cp         1 P4L       0.675000
      3 N3           2.0100     0.0000     1.1270 nb         1 P4L      -0.721000
      4 C4           1.4120     0.0020     2.3260 ca         1 P4L       0.493600
      5 C5           0.0440     0.0230     2.3630 ca         1 P4L      -0.335900
      6 C6          -0.6590     0.0120     1.1460 ca         1 P4L       0.684600
      7 O6          -2.0150     0.0140     1.1470 oh         1 P4L      -0.607300
      8 CAB          3.4170    -0.0070    -3.6500 ca         1 P4L      -0.240300
      9 CAC          2.0310    -0.0060    -3.6870 ca         1 P4L      -0.106000
     10 CAD          4.0630    -0.0050    -2.4270 ca         1 P4L       0.413200
     11 CAE          1.3390    -0.0040    -2.4870 ca         1 P4L      -0.206300
     12 CAF          1.7100     0.4530     4.7930 c3         1 P4L       0.017700
     13 CAG          2.3430    -0.0450     3.5020 c3         1 P4L      -0.129700
     14 CAH         -0.8020     0.0770     3.6080 c3         1 P4L       0.081000
     15 NAI          3.3800    -0.0040    -1.3020 nb         1 P4L      -0.647000
     16 SAL          0.1590    -0.4660     5.0470 ss         1 P4L      -0.348200
     17 CAN          2.0540    -0.0030    -1.2930 cp         1 P4L       0.373300
     18 HO6         -2.3310    -0.5190     0.4370 ho         1 P4L       0.444000
     19 HAC          1.5010    -0.0070    -4.6320 ha         1 P4L       0.141000
     20 HAD          5.1460    -0.0060    -2.3950 h4         1 P4L       0.028100
     21 HAE          0.2550    -0.0030    -2.4780 ha         1 P4L       0.159000
     22 HAF          2.3810     0.2490     5.6180 h1         1 P4L       0.079200
     23 HAFA         1.4840     1.5080     4.6940 h1         1 P4L       0.079200
     24 HAG          2.6440    -1.0750     3.6510 hc         1 P4L       0.083700
     25 HAGA         3.1940     0.5880     3.2800 hc         1 P4L       0.083700
     26 HAH         -1.1380     1.0950     3.7670 h1         1 P4L       0.087200
     27 HAHA        -1.6600    -0.5730     3.4860 h1         1 P4L       0.087200
     28 HAB          3.9890    -0.0080    -4.5710 ha         1 P4L       0.139000
@<TRIPOS>BOND
     1     1     2 ar
     2     1     6 ar
     3     2     3 ar
     4     2    17 1
     5     3     4 ar
     6     4     5 ar
     7     4    13 1
     8     5     6 ar
     9     5    14 1
    10     6     7 1
    11     8     9 ar
    12     8    10 ar
    13     9    11 ar
    14    10    15 ar
    15    11    17 ar
    16    12    13 1
    17    12    16 1
    18    14    16 1
    19    15    17 ar
    20     7    18 1
    21     8    28 1
    22     9    19 1
    23    10    20 1
    24    11    21 1
    25    12    22 1
    26    12    23 1
    27    13    24 1
    28    13    25 1
    29    14    26 1
    30    14    27 1
@<TRIPOS>SUBSTRUCTURE
     1 P4L         1 TEMP              0 ****  ****    0 ROOT
