@<TRIPOS>MOLECULE
molecule
   42    46     1     0     0
SMALL
bcc


@<TRIPOS>ATOM
      1 C19          0.0000     0.0000     0.0000 ca         1 P4O      -0.028000
      2 C20          1.4010     0.0000     0.0000 ca         1 P4O      -0.159300
      3 C25          2.1360     0.0000     1.1970 ca         1 P4O      -0.102000
      4 C24          3.5280    -0.0000     1.1690 ca         1 P4O      -0.131000
      5 C23          4.1890     0.0000    -0.0530 ca         1 P4O      -0.111000
      6 C22          3.4570    -0.0010    -1.2440 ca         1 P4O      -0.177300
      7 C21          2.0650    -0.0010    -1.2450 ca         1 P4O       0.414600
      8 N16          1.3910    -0.0010    -2.4100 nb         1 P4O      -0.664000
      9 C17          0.0380    -0.0010    -2.3660 ca         1 P4O       0.425200
     10 C18         -0.6990    -0.0010    -1.2000 cp         1 P4O      -0.277800
     11 C14         -2.1410    -0.0010    -1.2260 cp         1 P4O       0.473800
     12 C13         -2.8360     0.5930    -2.2680 ca         1 P4O      -0.243300
     13 N15         -2.7320    -0.6120    -0.1750 nb         1 P4O      -0.660000
     14 C10         -4.0820    -0.6290    -0.1700 ca         1 P4O       0.407200
     15 C11         -4.8690    -0.0660    -1.1620 ca         1 P4O      -0.232300
     16 C12         -4.2250     0.5550    -2.2270 ca         1 P4O       0.035000
     17 C2          -4.9970     1.1590    -3.2870 cc         1 P4O      -0.104300
     18 C3          -6.2520     1.7350    -3.2500 cd         1 P4O      -0.096000
     19 C4          -6.5470     2.1770    -4.5620 cd         1 P4O      -0.219600
     20 C6          -7.7150     2.8360    -5.1180 c          1 P4O       0.759100
     21 O26         -8.7500     2.9890    -4.4770 o          1 P4O      -0.625500
     22 N7          -7.5580     3.2520    -6.4400 ns         1 P4O      -0.615900
     23 C8          -6.2720     3.2850    -7.1450 c3         1 P4O       0.126000
     24 C9          -5.3720     2.0900    -6.8110 c3         1 P4O      -0.039100
     25 C5          -5.4700     1.8410    -5.3540 cc         1 P4O      -0.076600
     26 N1          -4.5300     1.2280    -4.5760 na         1 P4O      -0.143100
     27 H19         -0.5400     0.0000     0.9390 ha         1 P4O       0.156000
     28 H25          1.6170    -0.0000     2.1480 ha         1 P4O       0.137000
     29 H24          4.0920     0.0000     2.0930 ha         1 P4O       0.136000
     30 H23          5.2720    -0.0000    -0.0830 ha         1 P4O       0.137000
     31 H22          3.9860    -0.0000    -2.1890 ha         1 P4O       0.146000
     32 H17         -0.5000    -0.0010    -3.3060 h4         1 P4O       0.012100
     33 H13         -2.3140     1.0710    -3.0870 ha         1 P4O       0.140000
     34 H10         -4.5820    -1.1140     0.6600 h4         1 P4O       0.023100
     35 H11         -5.9500    -0.1070    -1.1100 ha         1 P4O       0.154000
     36 H3          -6.9460     1.6970    -2.4190 ha         1 P4O       0.170000
     37 H1          -3.6450     0.8840    -4.8940 hn         1 P4O       0.301700
     38 H7          -8.3740     3.5480    -6.9390 hn         1 P4O       0.319500
     39 H8C1        -5.7520     4.1810    -6.8300 h1         1 P4O       0.050200
     40 H8C2        -6.4830     3.2450    -8.2070 h1         1 P4O       0.050200
     41 H9C1        -5.7490     1.2190    -7.3340 hc         1 P4O       0.066700
     42 H9C2        -4.3480     2.3560    -7.0450 hc         1 P4O       0.066700
@<TRIPOS>BOND
     1     1     2 ar
     2     1    10 ar
     3     1    27 1
     4     2     3 ar
     5     2     7 ar
     6     3     4 ar
     7     3    28 1
     8     4     5 ar
     9     4    29 1
    10     5     6 ar
    11     5    30 1
    12     6     7 ar
    13     6    31 1
    14     7     8 ar
    15     8     9 ar
    16     9    10 ar
    17     9    32 1
    18    10    11 1
    19    11    12 ar
    20    11    13 ar
    21    12    16 ar
    22    12    33 1
    23    13    14 ar
    24    14    15 ar
    25    14    34 1
    26    15    16 ar
    27    15    35 1
    28    16    17 1
    29    17    18 2
    30    17    26 1
    31    18    19 1
    32    18    36 1
    33    19    20 1
    34    19    25 2
    35    20    21 2
    36    20    22 1
    37    22    23 1
    38    22    38 1
    39    23    40 1
    40    23    24 1
    41    23    39 1
    42    24    41 1
    43    24    42 1
    44    24    25 1
    45    25    26 1
    46    26    37 1
@<TRIPOS>SUBSTRUCTURE
     1 P4O         1 TEMP              0 ****  ****    0 ROOT
