@<TRIPOS>MOLECULE
P4P
   45    48     1     0     0
SMALL
bcc


@<TRIPOS>ATOM
      1 P          -0.0000   -0.0000   -0.0000 p5        1 P4P      1.822000
      2 C1A         1.5980   -0.0120    0.0060 ca        1 P4P     -0.599500
      3 C2A         2.3020   -0.0890    1.2180 ca        1 P4P     -0.029000
      4 C3A         3.6910   -0.0870    1.2500 ca        1 P4P     -0.142000
      5 C4A         4.4110   -0.0080    0.0540 ca        1 P4P     -0.039000
      6 C5A         3.7310    0.0700   -1.1620 ca        1 P4P     -0.142000
      7 C6A         2.3380    0.0680   -1.1770 ca        1 P4P     -0.029000
      8 C1C        -0.5360   -0.5020   -1.4190 ca        1 P4P     -0.599500
      9 C6C        -0.9100   -1.8320   -1.6360 ca        1 P4P     -0.029000
     10 C5C        -1.3650   -2.2630   -2.8800 ca        1 P4P     -0.142000
     11 C4C        -1.4510   -1.3590   -3.9390 ca        1 P4P     -0.039000
     12 C3C        -1.0810   -0.0240   -3.7450 ca        1 P4P     -0.142000
     13 C2C        -0.6310    0.3910   -2.4980 ca        1 P4P     -0.029000
     14 C1D        -0.5340   -0.9720    1.1510 ca        1 P4P     -0.599500
     15 C6D        -1.6820   -0.6740    1.8910 ca        1 P4P     -0.029000
     16 C5D        -2.1480   -1.5330    2.8830 ca        1 P4P     -0.142000
     17 C4D        -1.4620   -2.7180    3.1520 ca        1 P4P     -0.039000
     18 C3D        -0.3110   -3.0360    2.4240 ca        1 P4P     -0.142000
     19 C2D         0.1410   -2.1690    1.4380 ca        1 P4P     -0.029000
     20 C6B         0.2540    2.4380    0.9220 ca        1 P4P     -0.029000
     21 C5B        -0.2190    3.7270    1.1580 ca        1 P4P     -0.142000
     22 C4B        -1.4990    4.0840    0.7320 ca        1 P4P     -0.039000
     23 C3B        -2.2990    3.1470    0.0710 ca        1 P4P     -0.142000
     24 C2B        -1.8120    1.8660   -0.1580 ca        1 P4P     -0.029000
     25 C1B        -0.5280    1.4850    0.2620 ca        1 P4P     -0.599500
     26 H2A         1.7290   -0.1580    2.1580 ha        1 P4P      0.146500
     27 H3A         4.2240   -0.1490    2.2120 ha        1 P4P      0.160500
     28 H4A         5.5140   -0.0070    0.0730 ha        1 P4P      0.160000
     29 H5A         4.2930    0.1310   -2.1070 ha        1 P4P      0.160500
     30 H6A         1.8050    0.1250   -2.1420 ha        1 P4P      0.146500
     31 H6C        -0.8480   -2.5500   -0.8010 ha        1 P4P      0.146500
     32 H5C        -1.6550   -3.3160   -3.0260 ha        1 P4P      0.160500
     33 H4C        -1.8100   -1.6940   -4.9260 ha        1 P4P      0.160000
     34 H3C        -1.1480    0.6940   -4.5780 ha        1 P4P      0.160500
     35 H2C        -0.3450    1.4450   -2.3380 ha        1 P4P      0.146500
     36 H6D        -2.2260    0.2640    1.6850 ha        1 P4P      0.146500
     37 H5D        -3.0540   -1.2770    3.4540 ha        1 P4P      0.160500
     38 H4D        -1.8250   -3.4030    3.9370 ha        1 P4P      0.160000
     39 H3D         0.2330   -3.9710    2.6340 ha        1 P4P      0.160500
     40 H2D         1.0520   -2.4120    0.8650 ha        1 P4P      0.146500
     41 H5B         0.4160    4.4610    1.6790 ha        1 P4P      0.160500
     42 H4B        -1.8790    5.1030    0.9150 ha        1 P4P      0.160000
     43 H3B        -3.3090    3.4250   -0.2680 ha        1 P4P      0.160500
     44 H2B        -2.4370    1.1250   -0.6850 ha        1 P4P      0.146500
     45 H6B         1.2680    2.1610    1.2580 ha        1 P4P      0.146500
@<TRIPOS>BOND
     1    1    2 1   
     2    1    8 1   
     3    1   14 1   
     4    1   25 1   
     5    2    3 ar  
     6    2    7 ar  
     7    3    4 ar  
     8    3   26 1   
     9    4    5 ar  
    10    4   27 1   
    11    5    6 ar  
    12    5   28 1   
    13    6    7 ar  
    14    6   29 1   
    15    7   30 1   
    16    8    9 ar  
    17    8   13 ar  
    18    9   10 ar  
    19    9   31 1   
    20   10   11 ar  
    21   10   32 1   
    22   11   12 ar  
    23   11   33 1   
    24   12   13 ar  
    25   12   34 1   
    26   13   35 1   
    27   14   15 ar  
    28   14   19 ar  
    29   15   16 ar  
    30   15   36 1   
    31   16   17 ar  
    32   16   37 1   
    33   17   18 ar  
    34   17   38 1   
    35   18   19 ar  
    36   18   39 1   
    37   19   40 1   
    38   20   21 ar  
    39   20   25 ar  
    40   20   45 1   
    41   21   22 ar  
    42   21   41 1   
    43   22   23 ar  
    44   22   42 1   
    45   23   24 ar  
    46   23   43 1   
    47   24   25 ar  
    48   24   44 1   
@<TRIPOS>SUBSTRUCTURE
     1 P4P         1 TEMP              0 ****  ****    0 ROOT
