@<TRIPOS>MOLECULE
molecule
   28    29     1     0     0
SMALL
bcc


@<TRIPOS>ATOM
      1 N7           0.0000     0.0000     0.0000 nc         1 P4T      -0.720000
      2 C8           1.3460     0.0000     0.0000 cd         1 P4T       0.690300
      3 N9           2.1350    -0.0550    -1.1210 nu         1 P4T      -0.738300
      4 C5          -0.5100     0.0490     1.2610 cc         1 P4T       0.466600
      5 C4           0.5990     0.0470     2.2570 cd         1 P4T      -0.342000
      6 C3           0.5730     0.1020     3.7630 c          1 P4T       0.610700
      7 C6          -1.9770     0.0850     1.5670 c3         1 P4T      -0.120400
      8 C10          1.8130    -0.0870    -2.4840 ca         1 P4T       0.162600
      9 C16          2.8180     0.2590    -3.4040 ca         1 P4T      -0.162000
     10 C15          2.5580     0.2580    -4.7880 ca         1 P4T      -0.102500
     11 C14          1.2980    -0.1190    -5.2460 ca         1 P4T      -0.153000
     12 C13          0.3120    -0.4770    -4.3270 ca         1 P4T      -0.102500
     13 C12          0.5560    -0.4700    -2.9470 ca         1 P4T      -0.162000
     14 S4           2.1670     0.0000     1.5270 ss         1 P4T      -0.090300
     15 C2          -0.7480     0.1740     4.4570 c3         1 P4T      -0.180100
     16 O8           1.6230     0.0740     4.4060 o          1 P4T      -0.554100
     17 H9           3.1170    -0.0760    -0.9300 hn         1 P4T       0.439800
     18 H6C1        -2.2110     0.9960     2.1050 hc         1 P4T       0.058700
     19 H6C2        -2.5400     0.0570     0.6420 hc         1 P4T       0.058700
     20 H6C3        -2.2400    -0.7710     2.1760 hc         1 P4T       0.058700
     21 H2C1        -0.5920     0.1970     5.5280 hc         1 P4T       0.061700
     22 H2C2        -1.3410    -0.6940     4.1970 hc         1 P4T       0.061700
     23 H2C3        -1.2690     1.0730     4.1480 hc         1 P4T       0.061700
     24 H16          3.7960     0.5510    -3.0430 ha         1 P4T       0.147000
     25 H12         -0.2240    -0.7520    -2.2500 ha         1 P4T       0.147000
     26 H15          3.3350     0.5320    -5.4910 ha         1 P4T       0.133500
     27 H14          1.0840    -0.1290    -6.3080 ha         1 P4T       0.133000
     28 H13         -0.6660    -0.7720    -4.6890 ha         1 P4T       0.133500
@<TRIPOS>BOND
     1     1     2 2
     2     1     4 1
     3     2     3 1
     4     2    14 1
     5     3     8 1
     6     4     5 2
     7     4     7 1
     8     5     6 1
     9     5    14 1
    10     6    15 1
    11     6    16 2
    12     8     9 ar
    13     8    13 ar
    14     9    10 ar
    15    10    11 ar
    16    11    12 ar
    17    12    13 ar
    18     3    17 1
    19     7    18 1
    20     7    19 1
    21     7    20 1
    22    15    21 1
    23    15    22 1
    24    15    23 1
    25     9    24 1
    26    13    25 1
    27    10    26 1
    28    11    27 1
    29    12    28 1
@<TRIPOS>SUBSTRUCTURE
     1 P4T         1 TEMP              0 ****  ****    0 ROOT
