@<TRIPOS>MOLECULE
P4T
   28    29     1     0     0
SMALL
bcc


@<TRIPOS>ATOM
      1 N7           0.0000     0.0000     0.0000 nc         1 P4T      -0.670000
      2 C8           1.3460     0.0000     0.0000 cd         1 P4T       0.548300
      3 N9           2.1350    -0.0550    -1.1210 nu         1 P4T      -0.232300
      4 C5          -0.5100     0.0490     1.2610 cc         1 P4T       0.469600
      5 C4           0.5990     0.0470     2.2570 cd         1 P4T      -0.319000
      6 C3           0.5730     0.1020     3.7630 c          1 P4T       0.675700
      7 C6          -1.9770     0.0850     1.5670 c3         1 P4T      -0.025400
      8 C10          1.8130    -0.0870    -2.4840 ca         1 P4T      -0.012400
      9 C16          2.8180     0.2590    -3.4040 ca         1 P4T      -0.128500
     10 C15          2.5580     0.2580    -4.7880 ca         1 P4T      -0.073500
     11 C14          1.2980    -0.1190    -5.2460 ca         1 P4T      -0.119000
     12 C13          0.3120    -0.4770    -4.3270 ca         1 P4T      -0.073500
     13 C12          0.5560    -0.4700    -2.9470 ca         1 P4T      -0.128500
     14 S4           2.1670     0.0000     1.5270 ss         1 P4T      -0.219300
     15 C2          -0.7480     0.1740     4.4570 c3         1 P4T      -0.090100
     16 O8           1.6230     0.0740     4.4060 o          1 P4T      -0.580100
     17 H9           3.1170    -0.0760    -0.9300 hn         1 P4T       0.273800
     18 H6C1        -2.2110     0.9960     2.1050 hc         1 P4T       0.020700
     19 H6C2        -2.5400     0.0570     0.6420 hc         1 P4T       0.020700
     20 H6C3        -2.2400    -0.7710     2.1760 hc         1 P4T       0.020700
     21 H2C1        -0.5920     0.1970     5.5280 hc         1 P4T       0.027700
     22 H2C2        -1.3410    -0.6940     4.1970 hc         1 P4T       0.027700
     23 H2C3        -1.2690     1.0730     4.1480 hc         1 P4T       0.027700
     24 H16          3.7960     0.5510    -3.0430 ha         1 P4T       0.123500
     25 H12         -0.2240    -0.7520    -2.2500 ha         1 P4T       0.123500
     26 H15          3.3350     0.5320    -5.4910 ha         1 P4T       0.103500
     27 H14          1.0840    -0.1290    -6.3080 ha         1 P4T       0.106000
     28 H13         -0.6660    -0.7720    -4.6890 ha         1 P4T       0.103500
@<TRIPOS>BOND
     1     1     2 2   
     2     1     4 1   
     3     2     3 1   
     4     2    14 1   
     5     3     8 1   
     6     3    17 1   
     7     4     5 2   
     8     4     7 1   
     9     5     6 1   
    10     5    14 1   
    11     6    15 1   
    12     6    16 2   
    13     7    18 1   
    14     7    19 1   
    15     7    20 1   
    16     8     9 ar  
    17     8    13 ar  
    18     9    10 ar  
    19     9    24 1   
    20    10    11 ar  
    21    10    26 1   
    22    11    12 ar  
    23    11    27 1   
    24    12    13 ar  
    25    12    28 1   
    26    13    25 1   
    27    15    21 1   
    28    15    22 1   
    29    15    23 1   
@<TRIPOS>SUBSTRUCTURE
     1 P4T         1 TEMP              0 ****  ****    0 ROOT
