@<TRIPOS>MOLECULE
P4Y
   41    44     1     0     0
SMALL
bcc


@<TRIPOS>ATOM
      1 C01         0.1650    0.1460    0.0560 ca        1 P4Y     -0.170000
      2 C02         1.5610    0.0360    0.1560 ca        1 P4Y     -0.125000
      3 C03         2.1960   -0.0720    1.3860 ca        1 P4Y     -0.152000
      4 C04         1.3950   -0.0670    2.5370 ca        1 P4Y     -0.048200
      5 C05        -0.0430    0.0510    2.4420 ca        1 P4Y     -0.080800
      6 C06        -0.6410    0.1550    1.1880 ca        1 P4Y     -0.078000
      7 N07         1.7350   -0.2130    3.8850 na        1 P4Y     -0.187400
      8 C08         0.5510   -0.0950    4.6510 cc        1 P4Y      0.030700
      9 C09        -0.5510    0.0300    3.8010 cd        1 P4Y     -0.110400
     10 C10         0.6090   -0.1850    6.1080 ca        1 P4Y     -0.074800
     11 C11        -1.9730    0.1270    4.1710 c3        1 P4Y     -0.030500
     12 C12        -2.4050    1.5790    4.3230 ca        1 P4Y      0.609300
     13 C13         0.5490    0.9620    6.9070 ca        1 P4Y     -0.089000
     14 C14         0.5980    0.8350    8.2990 ca        1 P4Y     -0.146500
     15 C15         0.7190   -0.4200    8.8900 ca        1 P4Y     -0.132000
     16 C16         0.7900   -1.5630    8.0920 ca        1 P4Y     -0.146500
     17 C17         0.7350   -1.4490    6.7060 ca        1 P4Y     -0.089000
     18 N18        -1.8260    2.2830    5.3380 nb        1 P4Y     -0.666000
     19 C19        -2.1530    3.5830    5.4830 ca        1 P4Y      0.331800
     20 C20        -3.1110    4.1920    4.6250 ca        1 P4Y     -0.065500
     21 C21        -3.6670    3.3690    3.6020 ca        1 P4Y      0.575600
     22 N22        -3.3210    2.0680    3.4330 nb        1 P4Y     -0.772000
     23 C23        -1.4630    4.4140    6.5890 c         1 P4Y      0.826100
     24 O24        -3.5310    5.4860    4.6930 oh        1 P4Y     -0.509100
     25 O25        -4.5950    3.9450    2.7590 oh        1 P4Y     -0.608300
     26 O26        -2.1330    5.3810    7.0540 o         1 P4Y     -0.807800
     27 O27        -0.2980    4.1090    6.9380 o         1 P4Y     -0.807800
     28 H01        -0.2940    0.2350   -0.9390 ha        1 P4Y      0.118000
     29 H02         2.1650    0.0410   -0.7630 ha        1 P4Y      0.115000
     30 H03         3.2880   -0.1540    1.4560 ha        1 P4Y      0.122000
     31 H06        -1.7340    0.2540    1.1080 ha        1 P4Y      0.141000
     32 H11        -2.1550   -0.3980    5.1480 hc        1 P4Y      0.060700
     33 H11A       -2.5970   -0.3790    3.3850 hc        1 P4Y      0.060700
     34 H13         0.4370    1.9760    6.4690 ha        1 P4Y      0.168500
     35 H14         0.5270    1.7450    8.9150 ha        1 P4Y      0.134000
     36 H15         0.7550   -0.5130    9.9850 ha        1 P4Y      0.117000
     37 H16         0.8840   -2.5540    8.5570 ha        1 P4Y      0.134000
     38 H17         0.7840   -2.3480    6.0750 ha        1 P4Y      0.168500
     39 HN07        2.6330   -0.0330    4.2510 hn        1 P4Y      0.289700
     40 H141       -3.1670    5.8830    5.5130 ho        1 P4Y      0.477000
     41 H151       -4.8690    3.2840    2.1040 ho        1 P4Y      0.415000
@<TRIPOS>BOND
     1    1    2 ar  
     2    1    6 ar  
     3    1   28 1   
     4    2    3 ar  
     5    2   29 1   
     6    3    4 ar  
     7    3   30 1   
     8    4    5 ar  
     9    4    7 1   
    10    5    6 ar  
    11    5    9 1   
    12    6   31 1   
    13    7    8 1   
    14    7   39 1   
    15    8    9 2   
    16    8   10 1   
    17    9   11 1   
    18   10   13 ar  
    19   10   17 ar  
    20   11   12 1   
    21   11   32 1   
    22   11   33 1   
    23   12   18 ar  
    24   12   22 ar  
    25   13   14 ar  
    26   13   34 1   
    27   14   15 ar  
    28   14   35 1   
    29   15   16 ar  
    30   15   36 1   
    31   16   17 ar  
    32   16   37 1   
    33   17   38 1   
    34   18   19 ar  
    35   19   20 ar  
    36   19   23 1   
    37   20   21 ar  
    38   20   24 1   
    39   21   22 ar  
    40   21   25 1   
    41   23   26 1   
    42   23   27 1   
    43   24   40 1   
    44   25   41 1   
@<TRIPOS>SUBSTRUCTURE
     1 P4Y         1 TEMP              0 ****  ****    0 ROOT
