@<TRIPOS>MOLECULE
molecule
   41    44     1     0     0
SMALL
bcc


@<TRIPOS>ATOM
      1 C01          0.0000     0.0000     0.0000 ca         1 P4Y      -0.172000
      2 C02          1.3880     0.0000     0.0000 ca         1 P4Y      -0.120000
      3 C03          2.0920     0.0000     1.1840 ca         1 P4Y      -0.152000
      4 C04          1.4080    -0.0000     2.3960 ca         1 P4Y      -0.047200
      5 C05         -0.0000     0.0000     2.3910 ca         1 P4Y      -0.086800
      6 C06         -0.6930     0.0060     1.1770 ca         1 P4Y      -0.066000
      7 N07          1.8160    -0.0010     3.7110 na         1 P4Y      -0.179400
      8 C08          0.7180     0.0000     4.5400 cc         1 P4Y       0.028700
      9 C09         -0.4150     0.0010     3.7930 cd         1 P4Y      -0.129400
     10 C10          0.7650     0.0010     6.0170 ca         1 P4Y      -0.036800
     11 C11         -1.8300     0.0020     4.3100 c3         1 P4Y      -0.029500
     12 C12         -2.3010     1.4230     4.4820 ca         1 P4Y       0.659300
     13 C13          1.6400     0.8530     6.6910 ca         1 P4Y      -0.099000
     14 C14          1.6800     0.8470     8.0700 ca         1 P4Y      -0.115500
     15 C15          0.8530    -0.0010     8.7850 ca         1 P4Y      -0.102000
     16 C16         -0.0170    -0.8490     8.1240 ca         1 P4Y      -0.115500
     17 C17         -0.0700    -0.8490     6.7450 ca         1 P4Y      -0.099000
     18 N18         -2.1000     2.0240     5.6330 nb         1 P4Y      -0.675000
     19 C19         -2.5010     3.2820     5.8280 ca         1 P4Y       0.438800
     20 C20         -3.1410     3.9560     4.7850 ca         1 P4Y      -0.121500
     21 C21         -3.3320     3.2710     3.5760 ca         1 P4Y       0.583600
     22 N22         -2.8970     2.0240     3.4690 nb         1 P4Y      -0.789000
     23 C23         -2.2710     3.9520     7.1280 c          1 P4Y       0.776100
     24 O24         -3.5670     5.2350     4.9380 oh         1 P4Y      -0.470100
     25 O25         -3.9490     3.8760     2.5310 oh         1 P4Y      -0.641300
     26 O26         -2.6390     5.0970     7.2950 o          1 P4Y      -0.802300
     27 O27         -1.6520     3.2910     8.1270 o          1 P4Y      -0.802300
     28 H01         -0.5380    -0.0000    -0.9410 ha         1 P4Y       0.119000
     29 H02          1.9240    -0.0050    -0.9420 ha         1 P4Y       0.116000
     30 H03          3.1760    -0.0000     1.1730 ha         1 P4Y       0.115000
     31 H06         -1.7760     0.0060     1.1690 ha         1 P4Y       0.141000
     32 H11         -2.4730    -0.5090     3.6040 hc         1 P4Y       0.064200
     33 H11A        -1.8650    -0.5080     5.2650 hc         1 P4Y       0.064200
     34 H13          2.2880     1.5180     6.1320 ha         1 P4Y       0.126000
     35 H14          2.3590     1.5090     8.5940 ha         1 P4Y       0.123500
     36 H15          0.8890    -0.0040     9.8680 ha         1 P4Y       0.122000
     37 H16         -0.6630    -1.5100     8.6890 ha         1 P4Y       0.123500
     38 H17         -0.7520    -1.5130     6.2280 ha         1 P4Y       0.126000
     39 HN07         2.7740    -0.1190     3.9750 hn         1 P4Y       0.290700
     40 H141        -4.5090     5.2540     4.9470 ho         1 P4Y       0.409000
     41 H151        -3.3000     4.1870     1.9210 ho         1 P4Y       0.424000
@<TRIPOS>BOND
     1     1    28 1
     2     2     1 ar
     3     2    29 1
     4     3     2 ar
     5     3    30 1
     6     4     3 ar
     7     4     5 ar
     8     5     6 ar
     9     6     1 ar
    10     6    31 1
    11     7     4 1
    12     7    39 1
    13     8     7 1
    14     8     9 2
    15     9     5 1
    16     9    11 1
    17    10     8 1
    18    11    32 1
    19    11    33 1
    20    12    11 1
    21    12    22 ar
    22    13    10 ar
    23    13    34 1
    24    14    13 ar
    25    14    35 1
    26    15    14 ar
    27    15    16 ar
    28    15    36 1
    29    16    17 ar
    30    16    37 1
    31    17    10 ar
    32    17    38 1
    33    18    12 ar
    34    19    18 ar
    35    19    20 ar
    36    20    21 ar
    37    21    22 ar
    38    21    25 1
    39    23    19 1
    40    24    20 1
    41    26    23 1
    42    27    23 1
    43    24    40 1
    44    25    41 1
@<TRIPOS>SUBSTRUCTURE
     1 P4Y         1 TEMP              0 ****  ****    0 ROOT
