@<TRIPOS>MOLECULE
molecule
   61    63     1     0     0
SMALL
bcc


@<TRIPOS>ATOM
      1 C01          0.0000     0.0000     0.0000 ca         1 P51      -0.050000
      2 C04         -0.7190    -0.0010    -1.2390 cg         1 P51      -0.087000
      3 C05         -1.3130    -0.0210    -2.2510 c1         1 P51      -0.098100
      4 C06         -1.9270     0.2570    -3.6380 c3         1 P51       0.228500
      5 O           -3.4000     0.8710    -3.7660 os         1 P51      -0.435900
      6 C07         -4.0460     1.1600    -5.0130 ca         1 P51       0.164100
      7 C1           0.0010     0.0060     2.4020 ca         1 P51      -0.149300
      8 N1          -0.7760     1.3790     4.2500 n3         1 P51      -0.686600
      9 O1           2.0700    -0.0000     3.5730 oh         1 P51      -0.526100
     10 C02          1.3960     0.0000     0.0000 ca         1 P51      -0.057000
     11 C2          -0.7480     0.0130     3.7090 c3         1 P51       0.203100
     12 N2          -1.8070     5.1390     5.8570 n3         1 P51      -0.721600
     13 C03         -1.2850     1.3890     5.6280 c3         1 P51       0.165800
     14 C3          -0.6940     0.0060     1.2110 ca         1 P51      -0.078000
     15 C4           2.0840     0.0000     1.1950 ca         1 P51       0.023900
     16 C7           1.3890     0.0000     2.3980 ca         1 P51       0.223100
     17 C8          -1.1640     2.8000     6.2070 c3         1 P51      -0.102900
     18 C10         -1.9670     3.7730     5.3390 c3         1 P51       0.167500
     19 C11         -2.5660     6.1010     5.0450 c3         1 P51       0.155300
     20 C12         -2.1050     7.5220     5.3770 c3         1 P51      -0.129100
     21 C13         -2.2010     5.2160     7.2700 c3         1 P51       0.155300
     22 C14         -3.6400     4.7200     7.4260 c3         1 P51      -0.129100
     23 C15         -1.4490     3.7080     3.8990 c3         1 P51      -0.102900
     24 C16         -1.5610     2.2700     3.3870 c3         1 P51       0.165800
     25 I2           4.1790    -0.0010     1.1970 i          1 P51      -0.142900
     26 C08         -5.1480     1.6090    -4.5430 ca         1 P51      -0.149000
     27 C09         -6.1040     2.0230    -5.5800 ca         1 P51      -0.113000
     28 C17         -5.5590     1.8210    -6.9500 ca         1 P51      -0.166000
     29 C18         -4.2930     1.2990    -7.1510 ca         1 P51      -0.113000
     30 C           -3.6650     1.0210    -6.1470 ca         1 P51      -0.149000
     31 H02          1.7280    -0.7090    -0.7490 ha         1 P51       0.156000
     32 H3          -1.6950     0.0150     0.7960 ha         1 P51       0.164000
     33 H061        -1.4460     1.0510    -4.1970 h1         1 P51       0.055700
     34 H062        -2.0610    -0.5240    -4.3750 h1         1 P51       0.055700
     35 H08         -5.5310     1.8250    -3.5530 ha         1 P51       0.141500
     36 H           -2.6420     0.6940    -6.2850 ha         1 P51       0.141500
     37 H21C        -1.6930    -0.4950     3.5660 h1         1 P51       0.034700
     38 H22C        -0.2760    -0.8260     4.2050 h1         1 P51       0.034700
     39 H031        -2.2490     0.9010     5.5490 h1         1 P51       0.035950
     40 H032        -0.8470     0.7920     6.4180 h1         1 P51       0.035950
     41 H161        -1.2490     2.4220     2.3610 h1         1 P51       0.035950
     42 H162        -2.6180     2.0940     3.5460 h1         1 P51       0.035950
     43 H1           1.7170    -0.3630     4.3680 ho         1 P51       0.455000
     44 H10         -3.0130     3.4940     5.3580 h1         1 P51       0.030700
     45 H111        -2.4620     5.7180     4.0380 h1         1 P51       0.052200
     46 H112        -3.6090     5.9550     5.3000 h1         1 P51       0.052200
     47 H131        -1.9710     4.6140     8.1400 h1         1 P51       0.052200
     48 H132        -1.7940     6.1850     7.5330 h1         1 P51       0.052200
     49 H81C        -1.6550     3.0890     7.1280 hc         1 P51       0.064700
     50 H82C        -0.0830     2.8500     6.2560 hc         1 P51       0.064700
     51 H151        -1.9610     4.5300     3.4130 hc         1 P51       0.064700
     52 H152        -0.4330     3.8740     3.5610 hc         1 P51       0.064700
     53 H121        -2.3870     7.9570     6.3280 hc         1 P51       0.039200
     54 H122        -1.0990     7.6250     5.7640 hc         1 P51       0.039200
     55 H123        -2.2330     8.2700     4.6040 hc         1 P51       0.039200
     56 H141        -3.9540     5.2360     8.3250 hc         1 P51       0.039200
     57 H142        -4.3820     5.2250     6.8210 hc         1 P51       0.039200
     58 H143        -3.7360     3.6750     7.1590 hc         1 P51       0.039200
     59 H09         -6.8940     2.7130    -5.3090 ha         1 P51       0.145000
     60 H17         -6.3120     1.9910    -7.7100 ha         1 P51       0.129000
     61 H18         -4.0450     0.8170    -8.0890 ha         1 P51       0.145000
@<TRIPOS>BOND
     1     1     2 1
     2     1    10 ar
     3     1    14 ar
     4     2     3 3
     5     3     4 1
     6     4     5 1
     7     5     6 1
     8     6    26 ar
     9     6    30 ar
    10     7    11 1
    11     7    14 ar
    12     7    16 ar
    13     8    11 1
    14     8    13 1
    15     8    24 1
    16     9    16 1
    17    10    15 ar
    18    12    18 1
    19    12    19 1
    20    12    21 1
    21    13    17 1
    22    15    16 ar
    23    15    25 1
    24    17    18 1
    25    18    23 1
    26    19    20 1
    27    21    22 1
    28    23    24 1
    29    26    27 ar
    30    27    28 ar
    31    28    29 ar
    32    29    30 ar
    33    10    31 1
    34    14    32 1
    35     4    33 1
    36     4    34 1
    37    26    35 1
    38    30    36 1
    39    11    37 1
    40    11    38 1
    41    13    39 1
    42    13    40 1
    43    24    41 1
    44    24    42 1
    45     9    43 1
    46    18    44 1
    47    19    45 1
    48    19    46 1
    49    21    47 1
    50    21    48 1
    51    17    49 1
    52    17    50 1
    53    23    51 1
    54    23    52 1
    55    20    53 1
    56    20    54 1
    57    20    55 1
    58    22    56 1
    59    22    57 1
    60    22    58 1
    61    27    59 1
    62    28    60 1
    63    29    61 1
@<TRIPOS>SUBSTRUCTURE
     1 P51         1 TEMP              0 ****  ****    0 ROOT
