@<TRIPOS>MOLECULE
P51
   61    63     1     0     0
SMALL
bcc


@<TRIPOS>ATOM
      1 C01          0.0000     0.0000     0.0000 ca         1 P51      -0.021000
      2 C04         -0.7190    -0.0010    -1.2390 cg         1 P51      -0.091000
      3 C05         -1.3130    -0.0210    -2.2510 c1         1 P51      -0.115100
      4 C06         -1.9270     0.2570    -3.6380 c3         1 P51       0.340500
      5 O           -3.4000     0.8710    -3.7660 os         1 P51      -0.414900
      6 C07         -4.0460     1.1600    -5.0130 ca         1 P51       0.173100
      7 C1           0.0010     0.0060     2.4020 ca         1 P51      -0.154300
      8 N1          -0.7760     1.3790     4.2500 n3         1 P51      -0.473600
      9 O1           2.0700    -0.0000     3.5730 oh         1 P51      -0.494100
     10 C02          1.3960     0.0000     0.0000 ca         1 P51      -0.057000
     11 C2          -0.7480     0.0130     3.7090 c3         1 P51       0.203100
     12 N2          -1.8070     5.1390     5.8570 n3         1 P51      -0.528600
     13 C03         -1.2850     1.3890     5.6280 c3         1 P51       0.149300
     14 C3          -0.6940     0.0060     1.2110 ca         1 P51      -0.074000
     15 C4           2.0840     0.0000     1.1950 ca         1 P51       0.160900
     16 C7           1.3890     0.0000     2.3980 ca         1 P51       0.219100
     17 C8          -1.1640     2.8000     6.2070 c3         1 P51      -0.070900
     18 C10         -1.9670     3.7730     5.3390 c3         1 P51       0.125500
     19 C11         -2.5660     6.1010     5.0450 c3         1 P51       0.133300
     20 C12         -2.1050     7.5220     5.3770 c3         1 P51      -0.036600
     21 C13         -2.2010     5.2160     7.2700 c3         1 P51       0.133300
     22 C14         -3.6400     4.7200     7.4260 c3         1 P51      -0.036600
     23 C15         -1.4490     3.7080     3.8990 c3         1 P51      -0.070900
     24 C16         -1.5610     2.2700     3.3870 c3         1 P51       0.149300
     25 I2           4.1790    -0.0010     1.1970 i          1 P51      -0.257900
     26 C08         -5.1480     1.6090    -4.5430 ca         1 P51      -0.135500
     27 C09         -6.1040     2.0230    -5.5800 ca         1 P51      -0.081500
     28 C17         -5.5590     1.8210    -6.9500 ca         1 P51      -0.136000
     29 C18         -4.2930     1.2990    -7.1510 ca         1 P51      -0.081500
     30 C           -3.6650     1.0210    -6.1470 ca         1 P51      -0.135500
     31 H02          1.7280    -0.7090    -0.7490 ha         1 P51       0.127000
     32 H3          -1.6950     0.0150     0.7960 ha         1 P51       0.137000
     33 H061        -1.4460     1.0510    -4.1970 h1         1 P51       0.002200
     34 H062        -2.0610    -0.5240    -4.3750 h1         1 P51       0.002200
     35 H08         -5.5310     1.8250    -3.5530 ha         1 P51       0.121500
     36 H           -2.6420     0.6940    -6.2850 ha         1 P51       0.121500
     37 H21C        -1.6930    -0.4950     3.5660 h1         1 P51       0.006200
     38 H22C        -0.2760    -0.8260     4.2050 h1         1 P51       0.006200
     39 H031        -2.2490     0.9010     5.5490 h1         1 P51       0.010450
     40 H032        -0.8470     0.7920     6.4180 h1         1 P51       0.010450
     41 H161        -1.2490     2.4220     2.3610 h1         1 P51       0.010450
     42 H162        -2.6180     2.0940     3.5460 h1         1 P51       0.010450
     43 H1           1.7170    -0.3630     4.3680 ho         1 P51       0.426000
     44 H10         -3.0130     3.4940     5.3580 h1         1 P51       0.020700
     45 H111        -2.4620     5.7180     4.0380 h1         1 P51       0.029700
     46 H112        -3.6090     5.9550     5.3000 h1         1 P51       0.029700
     47 H131        -1.9710     4.6140     8.1400 h1         1 P51       0.029700
     48 H132        -1.7940     6.1850     7.5330 h1         1 P51       0.029700
     49 H81C        -1.6550     3.0890     7.1280 hc         1 P51       0.040950
     50 H82C        -0.0830     2.8500     6.2560 hc         1 P51       0.040950
     51 H151        -1.9610     4.5300     3.4130 hc         1 P51       0.040950
     52 H152        -0.4330     3.8740     3.5610 hc         1 P51       0.040950
     53 H121        -2.3870     7.9570     6.3280 hc         1 P51       0.009200
     54 H122        -1.0990     7.6250     5.7640 hc         1 P51       0.009200
     55 H123        -2.2330     8.2700     4.6040 hc         1 P51       0.009200
     56 H141        -3.9540     5.2360     8.3250 hc         1 P51       0.009200
     57 H142        -4.3820     5.2250     6.8210 hc         1 P51       0.009200
     58 H143        -3.7360     3.6750     7.1590 hc         1 P51       0.009200
     59 H09         -6.8940     2.7130    -5.3090 ha         1 P51       0.114500
     60 H17         -6.3120     1.9910    -7.7100 ha         1 P51       0.101000
     61 H18         -4.0450     0.8170    -8.0890 ha         1 P51       0.114500
@<TRIPOS>BOND
     1     1     2 1   
     2     1    10 ar  
     3     1    14 ar  
     4     2     3 3   
     5     3     4 1   
     6     4     5 1   
     7     4    33 1   
     8     4    34 1   
     9     5     6 1   
    10     6    26 ar  
    11     6    30 ar  
    12     7    11 1   
    13     7    14 ar  
    14     7    16 ar  
    15     8    11 1   
    16     8    13 1   
    17     8    24 1   
    18     9    16 1   
    19     9    43 1   
    20    10    15 ar  
    21    10    31 1   
    22    11    37 1   
    23    11    38 1   
    24    12    18 1   
    25    12    19 1   
    26    12    21 1   
    27    13    17 1   
    28    13    39 1   
    29    13    40 1   
    30    14    32 1   
    31    15    16 ar  
    32    15    25 1   
    33    17    18 1   
    34    17    49 1   
    35    17    50 1   
    36    18    23 1   
    37    18    44 1   
    38    19    20 1   
    39    19    45 1   
    40    19    46 1   
    41    20    53 1   
    42    20    54 1   
    43    20    55 1   
    44    21    22 1   
    45    21    47 1   
    46    21    48 1   
    47    22    56 1   
    48    22    57 1   
    49    22    58 1   
    50    23    24 1   
    51    23    51 1   
    52    23    52 1   
    53    24    41 1   
    54    24    42 1   
    55    26    27 ar  
    56    26    35 1   
    57    27    28 ar  
    58    27    59 1   
    59    28    29 ar  
    60    28    60 1   
    61    29    30 ar  
    62    29    61 1   
    63    30    36 1   
@<TRIPOS>SUBSTRUCTURE
     1 P51         1 TEMP              0 ****  ****    0 ROOT
