@<TRIPOS>MOLECULE
molecule
   74    76     1     0     0
SMALL
bcc


@<TRIPOS>ATOM
      1 O1           0.0000     0.0000     0.0000 o          1 P52      -0.714500
      2 O2           2.0170     0.0000     1.5180 o          1 P52      -0.714500
      3 C2           1.5860     3.9690     2.0130 ca         1 P52      -0.089300
      4 C3           2.3360     5.1300     1.9980 ca         1 P52      -0.123000
      5 C4           1.8720     6.2610     2.6450 ca         1 P52      -0.127000
      6 C5           0.6650     6.2270     3.3160 ca         1 P52      -0.125000
      7 C6          -0.0830     5.0640     3.3370 ca         1 P52      -0.127000
      8 N1           1.5980     1.4880    -2.2440 nz         1 P52      -0.784600
      9 C7           0.3770     3.9350     2.6850 ca         1 P52      -0.123000
     10 C8           1.5780     2.7380    -0.1390 c3         1 P52      -0.068400
     11 C9           2.0870     1.4890    -0.8600 c3         1 P52      -0.063700
     12 C10          2.8330    -3.7450    -0.1500 c          1 P52       0.675100
     13 C11          2.0870    -1.4880    -0.8590 c3         1 P52      -0.241600
     14 C12          1.7240    -2.7310    -0.0440 c3         1 P52      -0.088700
     15 N2           2.8620    -4.8030     0.6830 ns         1 P52      -0.555900
     16 C13          0.4270    -3.3360    -0.5880 c3         1 P52      -0.067400
     17 C14         -0.7440    -2.4060    -0.2670 c3         1 P52      -0.107700
     18 C15         -2.0270    -2.9720    -0.8770 c3         1 P52      -0.074600
     19 C16         -0.9060    -2.2960     1.2510 c3         1 P52      -0.074600
     20 C17          3.9980    -5.7280     0.6540 c3         1 P52       0.118700
     21 N3           5.7990    -3.8960     4.2790 na         1 P52      -0.160400
     22 P1           1.4800     0.0000     0.0000 p5         1 P52       0.873400
     23 C18          3.7270    -6.8240    -0.3440 c          1 P52       0.446100
     24 C19          4.1940    -6.3410     2.0420 c3         1 P52      -0.101200
     25 C20          4.5850    -5.2600     3.0170 cc         1 P52      -0.174400
     26 C21          5.8350    -4.9250     3.3780 cd         1 P52      -0.092100
     27 C22          3.6760    -4.3740     3.7480 ca         1 P52      -0.087800
     28 C23          4.4940    -3.5370     4.5300 ca         1 P52      -0.035200
     29 C24          2.2890    -4.2360     3.7970 ca         1 P52      -0.097000
     30 C25          3.9040    -2.5770     5.3450 ca         1 P52      -0.126000
     31 C26          1.7290    -3.2850     4.6050 ca         1 P52      -0.119000
     32 C27          2.5310    -2.4580     5.3780 ca         1 P52      -0.081000
     33 O4           2.5890    -7.0620    -0.6910 o          1 P52      -0.386100
     34 N4           4.7480    -7.5410    -0.8530 nz         1 P52      -0.687400
     35 H2           1.7270     1.8540     1.8150 hc         1 P52       0.097200
     36 H3           3.1710     2.7380     1.3040 hc         1 P52       0.097200
     37 H4           3.2820     5.1560     1.4720 ha         1 P52       0.133000
     38 H5           2.4580     7.1720     2.6310 ha         1 P52       0.132000
     39 H6           0.3030     7.1120     3.8250 ha         1 P52       0.132000
     40 H7          -1.0290     5.0380     3.8630 ha         1 P52       0.132000
     41 H8           2.0330     0.7430    -2.7520 hn         1 P52       0.442467
     42 H9           0.6050     1.3590    -2.2470 hn         1 P52       0.442467
     43 H11         -0.2080     3.0240     2.7010 ha         1 P52       0.133000
     44 H12          1.9400     3.6220    -0.6500 hc         1 P52       0.057700
     45 H13          0.4950     2.7390    -0.1390 hc         1 P52       0.057700
     46 H14          3.1700     1.4880    -0.8600 hx         1 P52       0.106700
     47 H15          1.6830    -1.5410    -1.8630 hc         1 P52       0.041700
     48 H16          3.0480    -0.9900    -0.8490 hc         1 P52       0.041700
     49 H17          1.5860    -2.4550     0.9940 hc         1 P52       0.112700
     50 H18          2.0910    -4.9780     1.2960 hn         1 P52       0.359500
     51 H19          0.7710    -3.3550    -1.6150 hc         1 P52       0.035700
     52 H20          0.2660    -4.3360    -0.2020 hc         1 P52       0.035700
     53 H21         -0.5490    -1.4240    -0.6810 hc         1 P52       0.127700
     54 H22         -1.8650    -3.1860    -1.9260 hc         1 P52       0.031700
     55 H23         -2.8250    -2.2460    -0.7760 hc         1 P52       0.031700
     56 H24         -2.3010    -3.8840    -0.3600 hc         1 P52       0.031700
     57 H25         -1.7590    -1.6680     1.4780 hc         1 P52       0.031700
     58 H26         -0.0120    -1.8600     1.6790 hc         1 P52       0.031700
     59 H27         -1.0630    -3.2830     1.6690 hc         1 P52       0.031700
     60 H28          4.8930    -5.1910     0.3660 h1         1 P52       0.084700
     61 H29          6.6030    -3.4700     4.6970 hn         1 P52       0.309700
     62 H30          5.0340    -5.9040     1.5150 hc         1 P52       0.069200
     63 H31          4.5160    -7.3650     2.1860 hc         1 P52       0.069200
     64 H32          6.7370    -5.4000     3.0110 h4         1 P52       0.152000
     65 H33          1.6560    -4.8790     3.1970 ha         1 P52       0.116000
     66 H34          4.5210    -1.9260     5.9520 ha         1 P52       0.137000
     67 H35          0.6520    -3.1780     4.6430 ha         1 P52       0.143000
     68 H36          2.0740    -1.7090     6.0140 ha         1 P52       0.147000
     69 H37          4.4530    -8.4870    -0.9970 hn         1 P52       0.472800
     70 H38          5.0320    -7.1440    -1.7270 hn         1 P52       0.472800
     71 C1           2.0880     2.7380     1.3040 c3         1 P52      -0.060100
     72 H131         1.8140     2.3650    -2.6750 hn         1 P52       0.442467
     73 H43          5.5180    -7.5260    -0.2140 hn         1 P52       0.472800
     74 O3           3.7010    -3.6080    -0.9870 o          1 P52      -0.636100
@<TRIPOS>BOND
     1    34    23 1
     2    20    23 1
     3    20    15 1
     4    20    24 1
     5    23    33 2
     6    71     3 1
     7    71    10 1
     8    15    12 1
     9     9     3 ar
    10     9     7 ar
    11     3     4 ar
    12    16    14 1
    13    16    17 1
    14    13    14 1
    15    13    22 1
    16    18    17 1
    17     7     6 ar
    18    24    25 1
    19     4     5 ar
    20     6     5 ar
    21    12    14 1
    22    12    74 2
    23    17    19 1
    24    11    10 1
    25    11    22 1
    26    11     8 1
    27     1    22 1
    28    22     2 1
    29    25    27 1
    30    25    26 2
    31    29    27 ar
    32    29    31 ar
    33    27    28 ar
    34    26    21 1
    35    31    32 ar
    36    28    21 1
    37    28    30 ar
    38    32    30 ar
    39    71    35 1
    40    71    36 1
    41     4    37 1
    42     5    38 1
    43     6    39 1
    44     7    40 1
    45     8    41 1
    46     8    42 1
    47     9    43 1
    48    10    44 1
    49    10    45 1
    50    11    46 1
    51    13    47 1
    52    13    48 1
    53    14    49 1
    54    15    50 1
    55    16    51 1
    56    16    52 1
    57    17    53 1
    58    18    54 1
    59    18    55 1
    60    18    56 1
    61    19    57 1
    62    19    58 1
    63    19    59 1
    64    20    60 1
    65    21    61 1
    66    24    62 1
    67    24    63 1
    68    26    64 1
    69    29    65 1
    70    30    66 1
    71    31    67 1
    72    32    68 1
    73    34    69 1
    74    34    70 1
    75    72     8 1
    76    73    34 1
@<TRIPOS>SUBSTRUCTURE
     1 P52         1 TEMP              0 ****  ****    0 ROOT
