@<TRIPOS>MOLECULE
molecule
   43    45     1     0     0
SMALL
bcc


@<TRIPOS>ATOM
      1 C1           0.0000     0.0000     0.0000 cc         1 P54      -0.147900
      2 C2           1.4140     0.0000     0.0000 cc         1 P54      -0.031300
      3 C3          -0.6670     0.0000     1.2340 cd         1 P54       0.805200
      4 N4           2.0680     0.0000     1.2090 na         1 P54      -0.155900
      5 N5           0.0510    -0.0010     2.3630 nd         1 P54      -0.817000
      6 C6           1.3580     0.0000     2.3510 cc         1 P54       0.592400
      7 N7          -0.3830     0.0060    -1.2900 nc         1 P54      -0.627100
      8 C8           0.7050     0.0030    -2.0410 cd         1 P54       0.571200
      9 N9           1.7930     0.0010    -1.2700 nd         1 P54      -0.433300
     10 S10          0.7170     0.0070    -3.8030 ss         1 P54      -0.109100
     11 N11         -2.0400     0.0010     1.2830 nv         1 P54      -0.956500
     12 C12          3.5320    -0.0010     1.2530 c3         1 P54       0.031300
     13 C13          4.0420     1.4420     1.2680 c3         1 P54      -0.253400
     14 C14          5.5710     1.4410     1.3140 c3         1 P54      -0.197300
     15 C15          6.0620     2.8280     1.3280 c1         1 P54      -0.061100
     16 C16          6.4610     3.9330     1.3580 c1         1 P54      -0.187500
     17 C17         -0.9920    -0.1370    -4.2110 ca         1 P54       0.003900
     18 C18         -1.7000     0.9740    -4.6520 ca         1 P54      -0.080000
     19 C19         -3.0380     0.8560    -4.9710 ca         1 P54      -0.190000
     20 C20         -3.6740    -0.3660    -4.8510 ca         1 P54      -0.055300
     21 C21         -1.6340    -1.3650    -4.0970 ca         1 P54       0.013700
     22 C22         -2.9730    -1.4740    -4.4130 ca         1 P54      -0.149000
     23 C23         -0.8680    -2.5750    -3.6250 c3         1 P54      -0.090800
     24 C24         -5.1350    -0.4890    -5.2000 c3         1 P54      -0.065800
     25 H6           1.8700     0.0000     3.3060 h5         1 P54       0.062100
     26 HN11        -2.5090     0.1030     2.1610 hn         1 P54       0.455800
     27 HN1A        -2.5710    -0.1310     0.4450 hn         1 P54       0.455800
     28 H12          3.9210    -0.3180     0.2930 h1         1 P54       0.077200
     29 H12A         3.8690    -0.6840     2.0230 h1         1 P54       0.077200
     30 H13          3.2140     2.1160     1.4450 hc         1 P54       0.129200
     31 H13A         4.4980     1.6730     0.3120 hc         1 P54       0.129200
     32 H14          5.9150     2.2850     1.8980 hc         1 P54       0.142200
     33 H14A         5.9180     0.5210     1.7690 hc         1 P54       0.142200
     34 H16          6.8350     4.9490     1.3690 ha         1 P54       0.178500
     35 H18         -1.5590     2.0280    -4.8590 ha         1 P54       0.146000
     36 H19         -3.3250     1.8390    -5.3260 ha         1 P54       0.132000
     37 H22         -3.6020    -2.3520    -4.3330 ha         1 P54       0.134000
     38 H23         -0.9440    -3.3570    -4.3700 hc         1 P54       0.055700
     39 H23A        -0.8070    -2.8770    -2.5860 hc         1 P54       0.055700
     40 H23B         0.1780    -2.2980    -3.6650 hc         1 P54       0.055700
     41 H24         -5.5910    -1.4680    -5.2850 hc         1 P54       0.054367
     42 H24A        -5.1330     0.2400    -6.0010 hc         1 P54       0.054367
     43 H24B        -5.5140    -0.0650    -4.2780 hc         1 P54       0.054367
@<TRIPOS>BOND
     1     1     3 2
     2     1     2 1
     3     2     4 1
     4     3     5 1
     5     4     6 1
     6     4    12 1
     7     5     6 2
     8     6    25 1
     9     7     1 1
    10     7     8 2
    11     8     9 1
    12     9     2 2
    13    10     8 1
    14    10    17 1
    15    11     3 1
    16    11    26 1
    17    11    27 1
    18    12    28 1
    19    12    29 1
    20    13    12 1
    21    13    30 1
    22    13    31 1
    23    14    13 1
    24    14    32 1
    25    14    33 1
    26    15    14 1
    27    16    15 3
    28    16    34 1
    29    17    21 ar
    30    17    18 ar
    31    18    19 ar
    32    18    35 1
    33    19    20 ar
    34    19    36 1
    35    20    24 1
    36    21    22 ar
    37    22    20 ar
    38    22    37 1
    39    23    21 1
    40    23    38 1
    41    23    39 1
    42    23    40 1
    43    24    41 1
    44    24    42 1
    45    24    43 1
@<TRIPOS>SUBSTRUCTURE
     1 P54         1 TEMP              0 ****  ****    0 ROOT
