@<TRIPOS>MOLECULE
P55
   46    50     1     0     0
SMALL
bcc


@<TRIPOS>ATOM
      1 N01          0.0000     0.0000     0.0000 n2         1 P55      -0.243000
      2 C02          1.3060     0.0000     0.0000 c2         1 P55       0.030000
      3 C03          1.7600     0.0000     1.3350 c2         1 P55      -0.242000
      4 C04          0.6200     0.0010     2.1530 c2         1 P55      -0.011000
      5 N05         -0.4670     0.0020     1.3180 na         1 P55       0.288000
      6 N06          0.4360     0.0030     3.4750 n2         1 P55      -0.222000
      7 C07         -0.7900     0.0040     3.9760 c2         1 P55       0.065000
      8 N08         -1.8600     0.0040     3.1750 n2         1 P55      -0.239000
      9 C09         -1.7210     0.0020     1.8620 c2         1 P55       0.037000
     10 N10         -2.8280     0.0020     1.0510 nu         1 P55       0.150000
     11 C11         -4.1040    -0.1160     1.6090 ca         1 P55      -0.109000
     12 C12         -5.1770     0.5600     1.0430 ca         1 P55      -0.139000
     13 C13         -6.4370     0.4410     1.5970 ca         1 P55      -0.098000
     14 C14         -6.6300    -0.3490     2.7140 ca         1 P55      -0.088000
     15 C15         -5.5640    -1.0240     3.2820 ca         1 P55      -0.098000
     16 C16         -4.3040    -0.9140     2.7280 ca         1 P55      -0.139000
     17 N17         -0.9660     0.0060     5.3430 nh         1 P55       0.079000
     18 C18         -2.3140     0.0350     5.9310 c3         1 P55      -0.155000
     19 C19         -2.4230    -1.0960     6.9590 c3         1 P55      -0.534000
     20 N20         -1.3210    -0.9840     7.9240 nx         1 P55       0.140000
     21 C21         -0.0180    -1.1520     7.2680 c3         1 P55      -0.336000
     22 C22          0.1890    -0.0280     6.2530 c3         1 P55       0.032000
     23 C23         -1.4850    -1.9450     9.0240 c3         1 P55      -0.478000
     24 C24         -0.4700    -1.6350    10.1260 c3         1 P55       0.048000
     25 C25          3.1230     0.0000     1.7720 c1         1 P55      -0.021000
     26 N26          4.2090    -0.0150     2.1070 n1         1 P55      -0.107000
     27 H02          2.1720    -0.1850    -0.6230 h4         1 P55       0.161000
     28 HN10        -3.3000     0.4600     0.2970 hn         1 P55       0.142000
     29 H12         -4.9380     0.9020     0.0440 ha         1 P55       0.136000
     30 H13         -7.2560     0.9410     1.0950 ha         1 P55       0.112000
     31 H14         -7.5700    -0.2350     3.2400 ha         1 P55       0.103000
     32 H15         -5.4670    -1.7940     4.0380 ha         1 P55       0.112000
     33 H16         -3.9340    -1.5970     3.4830 ha         1 P55       0.136000
     34 H181        -2.4640     0.9070     5.3060 h1         1 P55       0.110000
     35 H182        -2.6620    -0.5760     5.1080 h1         1 P55       0.110000
     36 H191        -3.4540    -1.1850     7.2760 hx         1 P55       0.136000
     37 H192        -1.9650    -1.0560     7.9400 DU         1 P55       0.283000
     38 H211         0.9220    -0.9120     7.7500 hx         1 P55       0.071000
     39 H212         0.2210    -0.2740     6.6810 hx         1 P55       0.071000
     40 H221         1.0430    -0.6770     6.1030 h1         1 P55       0.093000
     41 H222         0.7190     0.8970     6.0620 h1         1 P55       0.093000
     42 H231        -0.7890    -1.9970     9.8530 hx         1 P55       0.154000
     43 H232        -1.2690    -2.8410     8.4560 hx         1 P55       0.154000
     44 H241        -0.8160    -2.0430    11.0690 hc         1 P55       0.070333
     45 H242         0.0610    -0.7360    10.4140 hc         1 P55       0.070333
     46 H243         0.2960    -2.3130     9.7710 hc         1 P55       0.070333
@<TRIPOS>BOND
     1     1     2 1   
     2     1     5 1   
     3     2     3 1   
     4     2    27 1   
     5     3     4 1   
     6     3    25 1   
     7     4     5 1   
     8     4     6 1   
     9     5     9 1   
    10     6     7 1   
    11     7     8 1   
    12     7    17 1   
    13     8     9 1   
    14     9    10 1   
    15    10    11 1   
    16    10    28 1   
    17    11    12 1   
    18    11    16 1   
    19    12    13 1   
    20    12    29 1   
    21    13    14 1   
    22    13    30 1   
    23    14    15 1   
    24    14    31 1   
    25    15    16 1   
    26    15    32 1   
    27    16    33 1   
    28    17    18 1   
    29    17    22 1   
    30    18    19 1   
    31    18    34 1   
    32    18    35 1   
    33    19    20 1   
    34    19    36 1   
    35    19    37 1   
    36    20    21 1   
    37    20    23 1   
    38    20    37 1   
    39    21    22 1   
    40    21    38 1   
    41    21    39 1   
    42    22    40 1   
    43    22    41 1   
    44    23    24 1   
    45    23    42 1   
    46    23    43 1   
    47    24    44 1   
    48    24    45 1   
    49    24    46 1   
    50    25    26 1   
@<TRIPOS>SUBSTRUCTURE
     1 P55         1 TEMP              0 ****  ****    0 ROOT
