@<TRIPOS>MOLECULE
molecule
   46    49     1     0     0
SMALL
bcc


@<TRIPOS>ATOM
      1 N01          0.0000     0.0000     0.0000 nc         1 P55      -0.554100
      2 C02          1.3060     0.0000     0.0000 cd         1 P55       0.458500
      3 C03          1.7600     0.0000     1.3350 cd         1 P55      -0.312300
      4 C04          0.6200     0.0010     2.1530 cc         1 P55       0.532500
      5 N05         -0.4670     0.0020     1.3180 na         1 P55      -0.159600
      6 N06          0.4360     0.0030     3.4750 nc         1 P55      -0.849000
      7 C07         -0.7900     0.0040     3.9760 cd         1 P55       0.997900
      8 N08         -1.8600     0.0040     3.1750 nd         1 P55      -0.864000
      9 C09         -1.7210     0.0020     1.8620 cc         1 P55       0.933400
     10 N10         -2.8280     0.0020     1.0510 nu         1 P55      -0.748300
     11 C11         -4.1040    -0.1160     1.6090 ca         1 P55       0.098600
     12 C12         -5.1770     0.5600     1.0430 ca         1 P55      -0.160500
     13 C13         -6.4370     0.4410     1.5970 ca         1 P55      -0.122000
     14 C14         -6.6300    -0.3490     2.7140 ca         1 P55      -0.123000
     15 C15         -5.5640    -1.0240     3.2820 ca         1 P55      -0.122000
     16 C16         -4.3040    -0.9140     2.7280 ca         1 P55      -0.160500
     17 N17         -0.9660     0.0060     5.3430 nh         1 P55      -0.778300
     18 C18         -2.3140     0.0350     5.9310 c3         1 P55       0.182300
     19 C19         -2.4230    -1.0960     6.9590 c3         1 P55      -0.122700
     20 N20         -1.3210    -0.9840     7.9240 n3         1 P55      -0.734600
     21 C21         -0.0180    -1.1520     7.2680 c3         1 P55      -0.122700
     22 C22          0.1890    -0.0280     6.2530 c3         1 P55       0.182300
     23 C23         -1.4850    -1.9450     9.0240 c3         1 P55      -0.196200
     24 C24         -0.4700    -1.6350    10.1260 c3         1 P55      -0.124100
     25 C25          3.1230     0.0000     1.7720 ch         1 P55       0.265500
     26 N26          4.2090    -0.0150     2.1070 n1         1 P55      -0.407800
     27 H02          2.1720    -0.1850    -0.6230 h4         1 P55       0.084800
     28 HN10        -3.3000     0.4600     0.2970 hn         1 P55       0.499800
     29 H12         -4.9380     0.9020     0.0440 ha         1 P55       0.155000
     30 H13         -7.2560     0.9410     1.0950 ha         1 P55       0.139500
     31 H14         -7.5700    -0.2350     3.2400 ha         1 P55       0.131000
     32 H15         -5.4670    -1.7940     4.0380 ha         1 P55       0.139500
     33 H16         -3.9340    -1.5970     3.4830 ha         1 P55       0.155000
     34 H181        -2.4640     0.9070     5.3060 h1         1 P55       0.081700
     35 H182        -2.6620    -0.5760     5.1080 h1         1 P55       0.081700
     36 H191        -3.4540    -1.1850     7.2760 h1         1 P55       0.175950
     37 H192        -1.9650    -1.0560     7.9400 h1         1 P55       0.175950
     38 H211         0.9220    -0.9120     7.7500 h1         1 P55       0.175950
     39 H212         0.2210    -0.2740     6.6810 h1         1 P55       0.175950
     40 H221         1.0430    -0.6770     6.1030 h1         1 P55       0.081700
     41 H222         0.7190     0.8970     6.0620 h1         1 P55       0.081700
     42 H231        -0.7890    -1.9970     9.8530 h1         1 P55       0.197700
     43 H232        -1.2690    -2.8410     8.4560 h1         1 P55       0.197700
     44 H241        -0.8160    -2.0430    11.0690 hc         1 P55       0.093367
     45 H242         0.0610    -0.7360    10.4140 hc         1 P55       0.093367
     46 H243         0.2960    -2.3130     9.7710 hc         1 P55       0.093367
@<TRIPOS>BOND
     1     1     2 2
     2     1     5 1
     3     2     3 1
     4     2    27 1
     5     3    25 1
     6     3     4 2
     7     4     6 1
     8     4     5 1
     9     5     9 1
    10     6     7 2
    11     7    17 1
    12     7     8 1
    13     8     9 2
    14     9    10 1
    15    10    11 1
    16    10    28 1
    17    11    12 ar
    18    11    16 ar
    19    12    13 ar
    20    12    29 1
    21    13    14 ar
    22    13    30 1
    23    14    15 ar
    24    14    31 1
    25    15    16 ar
    26    15    32 1
    27    16    33 1
    28    17    22 1
    29    17    18 1
    30    18    19 1
    31    18    34 1
    32    18    35 1
    33    19    20 1
    34    19    36 1
    35    19    37 1
    36    20    21 1
    37    20    23 1
    38    21    22 1
    39    21    38 1
    40    21    39 1
    41    22    40 1
    42    22    41 1
    43    23    24 1
    44    23    42 1
    45    23    43 1
    46    24    44 1
    47    24    45 1
    48    24    46 1
    49    25    26 3
@<TRIPOS>SUBSTRUCTURE
     1 P55         1 TEMP              0 ****  ****    0 ROOT
