@<TRIPOS>MOLECULE
molecule
   23    23     1     0     0
SMALL
bcc


@<TRIPOS>ATOM
      1 CAA          0.0000     0.0000     0.0000 c3         1 P58       0.066300
      2 SAB          1.2590     0.0000    -2.6930 sh         1 P58      -0.255400
      3 SAC          3.8500     0.0010    -1.1670 s          1 P58      -0.649400
      4 CAD          2.9100    -4.0260     2.5040 ca         1 P58      -0.117000
      5 CAE          3.8310    -3.3750     1.7050 ca         1 P58      -0.134500
      6 CAF          1.7570    -3.3750     2.9010 ca         1 P58      -0.134500
      7 CAG          3.6000    -2.0710     1.3050 ca         1 P58      -0.107500
      8 CAH          1.5260    -2.0720     2.5020 ca         1 P58      -0.107500
      9 CAI          2.1970     0.0000     1.2690 c3         1 P58       0.138300
     10 CAJ          2.1380     0.0000    -1.1670 cs         1 P58       0.487000
     11 CAK          2.4490    -1.4210     1.7040 ca         1 P58      -0.126300
     12 NAL          1.4640     0.0000     0.0000 n          1 P58      -0.348800
     13 HAA         -0.3610    -0.9570    -0.3560 h1         1 P58       0.058700
     14 HAAA        -0.3610     0.1700     1.0070 h1         1 P58       0.058700
     15 HAAB        -0.3610     0.7870    -0.6510 h1         1 P58       0.058700
     16 HSAB         2.0860     0.3190    -3.6810 hs         1 P58       0.255800
     17 HAD          3.0910    -5.0470     2.8170 ha         1 P58       0.129000
     18 HAE          4.7340    -3.8850     1.3930 ha         1 P58       0.132000
     19 HAF          1.0350    -3.8860     3.5270 ha         1 P58       0.132000
     20 HAG          4.3220    -1.5600     0.6790 ha         1 P58       0.148000
     21 HAH          0.6230    -1.5620     2.8140 ha         1 P58       0.148000
     22 HAI          1.6110     0.5100     2.0240 h1         1 P58       0.084200
     23 HAIA         3.1430     0.5110     1.1400 h1         1 P58       0.084200
@<TRIPOS>BOND
     1     1    12 1
     2     1    13 1
     3     1    14 1
     4     1    15 1
     5    10     2 1
     6     2    16 1
     7    10     3 2
     8     4     5 ar
     9     4     6 ar
    10     4    17 1
    11     5     7 ar
    12     5    18 1
    13     6     8 ar
    14     6    19 1
    15     7    11 ar
    16     7    20 1
    17     8    11 ar
    18     8    21 1
    19    11     9 1
    20     9    12 1
    21     9    22 1
    22     9    23 1
    23    12    10 1
@<TRIPOS>SUBSTRUCTURE
     1 P58         1 TEMP              0 ****  ****    0 ROOT
