@<TRIPOS>MOLECULE
molecule
   39    42     1     0     0
SMALL
bcc


@<TRIPOS>ATOM
      1 FAX          0.0000     0.0000     0.0000 f          1 P59      -0.118900
      2 CAS          1.3520     0.0000     0.0000 ca         1 P59       0.149900
      3 CAT          2.0450     0.0000     1.1990 ca         1 P59      -0.171000
      4 CAU          3.4260    -0.0000     1.1980 ca         1 P59      -0.093000
      5 CAV          4.1160    -0.0010    -0.0010 ca         1 P59      -0.153000
      6 CAW          3.4250    -0.0000    -1.1980 ca         1 P59      -0.069000
      7 CAL          2.0440    -0.0060    -1.1990 ca         1 P59      -0.161300
      8 CAH          1.2910    -0.0050    -2.5040 c3         1 P59       0.420200
      9 NAG          2.1350     0.5790    -3.5520 nu         1 P59      -0.728600
     10 CAE          2.2910     1.9600    -3.5940 ca         1 P59       0.132600
     11 CAD          3.4310     2.5500    -4.1110 ca         1 P59      -0.140000
     12 CAC          3.5350     3.9270    -4.1450 ca         1 P59      -0.090000
     13 CAB          2.5040     4.7230    -3.6690 ca         1 P59      -0.154000
     14 CAA          1.3620     4.1520    -3.1490 ca         1 P59      -0.048000
     15 CAF          1.2470     2.7640    -3.1020 ca         1 P59      -0.189600
     16 CAJ          0.0490     2.1040    -2.5560 c          1 P59       0.725100
     17 OAM         -0.9430     2.7570    -2.2900 o          1 P59      -0.624500
     18 NAI          0.0620     0.7740    -2.3540 n          1 P59      -0.395000
     19 CAK         -1.1220     0.1220    -1.9950 ca         1 P59       0.069600
     20 CAN         -2.3260     0.8150    -1.9920 ca         1 P59      -0.165500
     21 CAO         -3.4920     0.1670    -1.6360 ca         1 P59      -0.110000
     22 CAP         -3.4630    -1.1700    -1.2840 ca         1 P59      -0.154000
     23 CAQ         -2.2660    -1.8630    -1.2860 ca         1 P59      -0.110000
     24 CAR         -1.0970    -1.2220    -1.6450 ca         1 P59      -0.165500
     25 H1           1.5040     0.0000     2.1380 ha         1 P59       0.148000
     26 H2           3.9690    -0.0010     2.1350 ha         1 P59       0.137000
     27 H3           5.2000     0.0020    -0.0010 ha         1 P59       0.136000
     28 H4           3.9680    -0.0030    -2.1360 ha         1 P59       0.155000
     29 H5           1.0370    -1.0220    -2.7770 h2         1 P59       0.094700
     30 H6           1.8320     0.2500    -4.4470 hn         1 P59       0.393800
     31 H7           4.2410     1.9350    -4.4850 ha         1 P59       0.143000
     32 H8           4.4260     4.3890    -4.5510 ha         1 P59       0.135000
     33 H9           2.5980     5.8020    -3.7020 ha         1 P59       0.137000
     34 H10          0.5590     4.7780    -2.7780 ha         1 P59       0.157000
     35 H11         -2.3500     1.8620    -2.2680 ha         1 P59       0.162000
     36 H12         -4.4320     0.7070    -1.6330 ha         1 P59       0.129000
     37 H13         -4.3790    -1.6750    -1.0030 ha         1 P59       0.126000
     38 H14         -2.2470    -2.9100    -1.0120 ha         1 P59       0.129000
     39 H15         -0.1600    -1.7660    -1.6470 ha         1 P59       0.162000
@<TRIPOS>BOND
     1    17    16 2
     2    14    13 ar
     3    14    15 ar
     4    13    12 ar
     5    16    15 1
     6    16    18 1
     7    15    10 ar
     8    22    21 ar
     9    22    23 ar
    10    21    20 ar
    11    12    11 ar
    12    23    24 ar
    13    20    19 ar
    14    24    19 ar
    15    19    18 1
    16    18     8 1
    17    10    11 ar
    18    10     9 1
    19     6     7 ar
    20     6     5 ar
    21     9     8 1
    22     8     7 1
    23     7     2 ar
    24     5     4 ar
    25     2     1 1
    26     2     3 ar
    27     4     3 ar
    28     3    25 1
    29     4    26 1
    30     5    27 1
    31     6    28 1
    32     8    29 1
    33     9    30 1
    34    11    31 1
    35    12    32 1
    36    13    33 1
    37    14    34 1
    38    20    35 1
    39    21    36 1
    40    22    37 1
    41    23    38 1
    42    24    39 1
@<TRIPOS>SUBSTRUCTURE
     1 P59         1 TEMP              0 ****  ****    0 ROOT
