@<TRIPOS>MOLECULE
P5A
   51    54     1     0     0
SMALL
bcc


@<TRIPOS>ATOM
      1 CB           0.0000     0.0000     0.0000 c3         1 P5A      -0.012400
      2 CG           1.5420     0.0000     0.0000 c3         1 P5A      -0.023400
      3 C           -1.6210    -0.8560     1.7070 c          1 P5A       0.637100
      4 O           -1.4980    -2.0430     1.9300 o          1 P5A      -0.547100
      5 N            0.7710    -0.5790     2.1970 n7         1 P5A      -0.536200
      6 CD           1.9440     0.0000     1.4910 c3         1 P5A       0.141800
      7 CA          -0.4010    -0.0000     1.4920 c3         1 P5A       0.039500
      8 N3S         -2.8490    -0.3070     1.6520 ns         1 P5A      -0.348300
      9 S           -4.1910    -1.2470     1.8900 s6         1 P5A       1.365100
     10 O1S         -4.0620    -2.3370     0.9870 o          1 P5A      -0.594300
     11 O2S         -5.2890    -0.3490     1.9430 o          1 P5A      -0.594300
     12 O5'         -4.0830    -1.8500     3.2830 os         1 P5A      -0.412500
     13 C5'         -4.7180    -0.9380     4.1790 c3         1 P5A       0.217400
     14 C4'         -4.6440    -1.4870     5.6040 c3         1 P5A       0.158100
     15 O4'         -3.2680    -1.6270     6.0180 os         1 P5A      -0.388600
     16 C1'         -3.3070    -1.6610     7.4610 c3         1 P5A       0.149800
     17 N9          -1.9970    -1.3130     8.0150 na         1 P5A       0.205000
     18 C4          -1.4920    -1.7160     9.2260 ca         1 P5A       0.278800
     19 N3          -1.9380    -2.4720    10.2230 nb         1 P5A      -0.676000
     20 C2          -1.1980    -2.6820    11.2900 ca         1 P5A       0.694900
     21 N1           0.0080    -2.1620    11.4290 nb         1 P5A      -0.745000
     22 C6           0.5380    -1.3910    10.4840 ca         1 P5A       0.592200
     23 N6           1.8030    -0.8520    10.6390 nv         1 P5A      -0.480500
     24 C5          -0.2170    -1.1350     9.3270 ca         1 P5A      -0.246200
     25 N7          -0.0090    -0.4270     8.1910 nc         1 P5A      -0.496100
     26 C8          -1.0530    -0.5280     7.4210 cd         1 P5A       0.247700
     27 C2'         -4.3560    -0.6000     7.8560 c3         1 P5A       0.124100
     28 O2'         -5.1200    -1.0360     8.9810 oh         1 P5A      -0.537800
     29 C3'         -5.2570    -0.4820     6.6030 c3         1 P5A       0.133100
     30 O3'         -6.6020    -0.8430     6.9170 oh         1 P5A      -0.546800
     31 HB1         -0.3750     0.8910    -0.4890 hc         1 P5A       0.025700
     32 HB2         -0.3750    -0.8910    -0.4890 hc         1 P5A       0.025700
     33 HG1          1.9170     0.8910    -0.4890 hc         1 P5A       0.021700
     34 HG2          1.9170    -0.8910    -0.4890 hc         1 P5A       0.021700
     35 HT1          0.7710    -0.2740     3.1500 hn         1 P5A       0.251800
     36 HD1          2.8190    -0.6200     1.6440 h1         1 P5A       0.011700
     37 HD2          2.1260     1.0120     1.8310 h1         1 P5A       0.011700
     38 HA          -0.5800     1.0130     1.8320 h1         1 P5A       0.009700
     39 H3S         -2.9520     0.6690     1.4510 hn         1 P5A       0.232500
     40 H1'1        -4.2150     0.0200     4.1350 h1         1 P5A       0.031200
     41 H1'2        -5.7560    -0.8150     3.8930 h1         1 P5A       0.031200
     42 H4'         -5.1540    -2.4400     5.6730 h1         1 P5A       0.057700
     43 H1'         -3.6180    -2.6410     7.8040 h2         1 P5A       0.075700
     44 H2          -1.5920    -3.3050    12.0840 h5         1 P5A      -0.003900
     45 H61          2.1950    -0.2810     9.9160 hn         1 P5A       0.276300
     46 H62          2.3260    -1.0330    11.4720 hn         1 P5A       0.276300
     47 H8          -1.1580    -0.0580     6.4510 h5         1 P5A       0.032800
     48 H2'         -3.8740     0.3470     8.0630 h1         1 P5A       0.016700
     49 HO'2        -5.2730    -0.3070     9.5590 ho         1 P5A       0.393000
     50 H3'         -5.2120     0.5230     6.2010 h1         1 P5A       0.011700
     51 H3T         -7.1640    -0.0950     6.8010 ho         1 P5A       0.391000
@<TRIPOS>BOND
     1     1     2 1   
     2     1     7 1   
     3     1    31 1   
     4     1    32 1   
     5     2     6 1   
     6     2    33 1   
     7     2    34 1   
     8     3     4 2   
     9     3     7 1   
    10     3     8 1   
    11     5     6 1   
    12     5     7 1   
    13     5    35 1   
    14     6    36 1   
    15     6    37 1   
    16     7    38 1   
    17     8     9 1   
    18     8    39 1   
    19     9    10 2   
    20     9    11 2   
    21     9    12 1   
    22    12    13 1   
    23    13    14 1   
    24    13    40 1   
    25    13    41 1   
    26    14    15 1   
    27    14    29 1   
    28    14    42 1   
    29    15    16 1   
    30    16    17 1   
    31    16    27 1   
    32    16    43 1   
    33    17    18 1   
    34    17    26 1   
    35    18    19 ar  
    36    18    24 ar  
    37    19    20 ar  
    38    20    21 ar  
    39    20    44 1   
    40    21    22 ar  
    41    22    23 1   
    42    22    24 ar  
    43    23    45 1   
    44    23    46 1   
    45    24    25 1   
    46    25    26 2   
    47    26    47 1   
    48    27    28 1   
    49    27    29 1   
    50    27    48 1   
    51    28    49 1   
    52    29    30 1   
    53    29    50 1   
    54    30    51 1   
@<TRIPOS>SUBSTRUCTURE
     1 P5A         1 TEMP              0 ****  ****    0 ROOT
