@<TRIPOS>MOLECULE
P5B
   74    76     1     0     0
SMALL
bcc


@<TRIPOS>ATOM
      1 C14          0.0000     0.0000     0.0000 c          1 P5B       0.574100
      2 O1           1.2120     0.0000     0.0000 o          1 P5B      -0.683100
      3 N5          -0.6740     0.0000     1.1670 ns         1 P5B      -0.184900
      4 C15          0.0590     0.0010     2.4360 c3         1 P5B       0.031700
      5 C18          0.4220     1.4380     2.8130 c3         1 P5B      -0.205400
      6 C19          1.3990     2.0050     1.7820 c3         1 P5B      -0.057400
      7 C20         -0.8040    -0.5990     3.5150 c          1 P5B       0.562100
      8 O5          -1.9220    -0.9890     3.2510 o          1 P5B      -0.592100
      9 N6          -0.3350    -0.7020     4.7750 ns         1 P5B      -0.198900
     10 C21         -1.1740    -1.2850     5.8230 c3         1 P5B       0.104300
     11 C16         -0.5160    -0.1970     7.9770 ca         1 P5B      -0.052500
     12 C17          0.1720    -0.1900     9.1740 ca         1 P5B      -0.073500
     13 C22          0.9640    -1.2830     9.5260 ca         1 P5B      -0.215900
     14 C23          1.0560    -2.3750     8.6650 ca         1 P5B      -0.073500
     15 C24          0.3590    -2.3730     7.4750 ca         1 P5B      -0.052500
     16 C25         -0.4210    -1.2850     7.1280 ca         1 P5B      -0.076300
     17 N1           1.6180    -0.2580    11.6100 n2         1 P5B      -0.468100
     18 C2           1.7560     3.4220     2.1530 c          1 P5B       0.313100
     19 O2           1.2780     3.9280     3.1460 o          1 P5B      -0.410100
     20 N3           2.6080     4.1260     1.3830 nz         1 P5B       0.198600
     21 C1          -1.2260     1.4190    -1.6230 c3         1 P5B       0.078800
     22 N4           0.1260    -0.4740    -2.3770 n7         1 P5B      -0.575100
     23 C5          -0.7540    -0.0020    -1.3060 c3         1 P5B       0.140500
     24 O4           1.0940    -2.1240    -3.8410 o          1 P5B      -0.577300
     25 O3           0.2680    -2.7430    -1.5790 o          1 P5B      -0.577300
     26 C9          -1.5620    -2.2930    -3.4910 c3         1 P5B       0.008400
     27 C8          -1.7370    -3.7410    -3.9520 c3         1 P5B       0.042900
     28 N2           2.4870    -2.3620    11.1530 nz         1 P5B       0.190400
     29 C10         -6.1380     0.6780    -3.6970 ca         1 P5B      -0.074000
     30 C7          -5.1980     0.9870    -4.6560 ca         1 P5B      -0.086000
     31 C3          -3.8760     1.2090    -4.2810 ca         1 P5B      -0.227200
     32 C4          -3.5180     1.1090    -2.9240 ca         1 P5B      -0.100800
     33 C11         -4.4890     0.8010    -1.9690 ca         1 P5B      -0.069000
     34 C6          -5.7810     0.5860    -2.3590 ca         1 P5B      -0.108000
     35 N7          -2.7330     1.5260    -4.9800 na         1 P5B       0.374600
     36 C13         -1.6760     1.6350    -4.1190 cc         1 P5B      -0.247100
     37 C12         -2.0830     1.3980    -2.8620 cd         1 P5B      -0.201400
     38 HN5         -1.6740    -0.0330     1.1660 hn         1 P5B       0.217500
     39 H15          0.9640    -0.5840     2.3300 h1         1 P5B       0.057700
     40 H181         0.4310     1.7860     3.8400 hc         1 P5B       0.075700
     41 H182         1.1800     0.6640     2.8220 hc         1 P5B       0.075700
     42 H191         0.9360     1.9950     0.8020 hc         1 P5B       0.076200
     43 H192         2.2970     1.3990     1.7630 hc         1 P5B       0.076200
     44 HN6          0.5970    -0.4070     4.9870 hn         1 P5B       0.166500
     45 H211        -1.4310    -2.3030     5.5550 h1         1 P5B       0.048700
     46 H212        -2.0800    -0.7000     5.9290 h1         1 P5B       0.048700
     47 H16         -1.1380     0.6470     7.7070 ha         1 P5B       0.132500
     48 H17          0.0460     0.6340     9.8660 ha         1 P5B       0.105000
     49 H23          1.6310    -3.2460     8.9540 ha         1 P5B       0.105000
     50 H24          0.4170    -3.2290     6.8140 ha         1 P5B       0.132500
     51 HN1          1.0500     0.5280    11.3610 hn         1 P5B       0.379400
     52 HN31         3.2530     3.5010     0.9410 hn         1 P5B       0.249800
     53 HN32         3.1120     4.7770     1.9520 hn         1 P5B       0.249800
     54 H11A        -1.8050     1.8010    -0.7900 hc         1 P5B       0.007700
     55 H12         -0.3670     2.0570    -1.7890 hc         1 P5B       0.007700
     56 HN4          0.7680     0.1580    -2.8120 hn         1 P5B       0.354800
     57 H5          -1.6120    -0.6580    -1.2270 h1         1 P5B       0.055700
     58 H91         -1.7080    -1.6010    -4.3110 h1         1 P5B       0.066700
     59 H92         -2.1980    -2.0420    -2.6510 h1         1 P5B       0.066700
     60 H81         -2.7330    -3.8730    -4.3570 hc         1 P5B       0.017700
     61 H82         -1.5990    -4.4080    -3.1090 hc         1 P5B       0.017700
     62 H83         -1.0040    -3.9690    -4.7160 hc         1 P5B       0.017700
     63 HN21         2.9260    -2.1880    12.0350 hn         1 P5B       0.224800
     64 HN22         1.9030    -3.1710    11.2250 hn         1 P5B       0.224800
     65 H10         -7.1660     0.5050    -3.9910 ha         1 P5B       0.112000
     66 H7          -5.4860     1.0570    -5.6980 ha         1 P5B       0.110000
     67 H11         -4.2180     0.7280    -0.9230 ha         1 P5B       0.091000
     68 H6          -6.5320     0.3420    -1.6180 ha         1 P5B       0.109000
     69 HN7         -2.6840     1.6580    -5.9710 hn         1 P5B       0.124700
     70 H13         -0.6610     1.8780    -4.4080 h4         1 P5B       0.140000
     71 S1           0.1080    -2.0700    -2.8200 s6         1 P5B       0.943900
     72 H33          2.0940     4.6170     0.6790 hn         1 P5B       0.249800
     73 H231         3.1890    -2.4980    10.4530 hn         1 P5B       0.224800
     74 C26          1.7050    -1.2810    10.8080 ce         1 P5B       0.202800
@<TRIPOS>BOND
     1     1     2 2   
     2     1     3 1   
     3     1    23 1   
     4     3     4 1   
     5     3    38 1   
     6     4     5 1   
     7     4     7 1   
     8     4    39 1   
     9     5     6 1   
    10     5    40 1   
    11     5    41 1   
    12     6    18 1   
    13     6    42 1   
    14     6    43 1   
    15     7     8 2   
    16     7     9 1   
    17     9    10 1   
    18     9    44 1   
    19    10    16 1   
    20    10    45 1   
    21    10    46 1   
    22    11    12 ar  
    23    11    16 ar  
    24    11    47 1   
    25    12    13 ar  
    26    12    48 1   
    27    13    14 ar  
    28    13    74 1   
    29    14    15 ar  
    30    14    49 1   
    31    15    16 ar  
    32    15    50 1   
    33    17    51 1   
    34    17    74 2   
    35    18    19 2   
    36    18    20 1   
    37    20    52 1   
    38    20    53 1   
    39    20    72 1   
    40    21    23 1   
    41    21    37 1   
    42    21    54 1   
    43    21    55 1   
    44    22    23 1   
    45    22    56 1   
    46    22    71 1   
    47    23    57 1   
    48    24    71 2   
    49    25    71 2   
    50    26    27 1   
    51    26    58 1   
    52    26    59 1   
    53    26    71 1   
    54    27    60 1   
    55    27    61 1   
    56    27    62 1   
    57    28    63 1   
    58    28    64 1   
    59    28    73 1   
    60    28    74 1   
    61    29    30 ar  
    62    29    34 ar  
    63    29    65 1   
    64    30    31 ar  
    65    30    66 1   
    66    31    32 ar  
    67    31    35 1   
    68    32    33 ar  
    69    32    37 1   
    70    33    34 ar  
    71    33    67 1   
    72    34    68 1   
    73    35    36 1   
    74    35    69 1   
    75    36    37 2   
    76    36    70 1   
@<TRIPOS>SUBSTRUCTURE
     1 P5B         1 TEMP              0 ****  ****    0 ROOT
