@<TRIPOS>MOLECULE
molecule
   74    76     1     0     0
SMALL
bcc


@<TRIPOS>ATOM
      1 C14          0.0000     0.0000     0.0000 c          1 P5B       0.651100
      2 O1           1.2120     0.0000     0.0000 o          1 P5B      -0.639100
      3 N5          -0.6740     0.0000     1.1670 ns         1 P5B      -0.568900
      4 C15          0.0590     0.0010     2.4360 c3         1 P5B       0.104700
      5 C18          0.4220     1.4380     2.8130 c3         1 P5B      -0.219400
      6 C19          1.3990     2.0050     1.7820 c3         1 P5B      -0.122400
      7 C20         -0.8040    -0.5990     3.5150 c          1 P5B       0.654100
      8 O5          -1.9220    -0.9890     3.2510 o          1 P5B      -0.554100
      9 N6          -0.3350    -0.7020     4.7750 ns         1 P5B      -0.590900
     10 C21         -1.1740    -1.2850     5.8230 c3         1 P5B       0.153300
     11 C16         -0.5160    -0.1970     7.9770 ca         1 P5B      -0.100500
     12 C17          0.1720    -0.1900     9.1740 ca         1 P5B      -0.085500
     13 C22          0.9640    -1.2830     9.5260 ca         1 P5B      -0.183900
     14 C23          1.0560    -2.3750     8.6650 ca         1 P5B      -0.085500
     15 C24          0.3590    -2.3730     7.4750 ca         1 P5B      -0.100500
     16 C25         -0.4210    -1.2850     7.1280 ca         1 P5B      -0.067300
     17 N1           1.6180    -0.2580    11.6100 n2         1 P5B      -0.672100
     18 C2           1.7560     3.4220     2.1530 c          1 P5B       0.479100
     19 O2           1.2780     3.9280     3.1460 o          1 P5B      -0.401100
     20 N3           2.6080     4.1260     1.3830 nz         1 P5B      -0.686400
     21 C1          -1.2260     1.4190    -1.6230 c3         1 P5B       0.002800
     22 N4           0.1260    -0.4740    -2.3770 n7         1 P5B      -0.888100
     23 C5          -0.7540    -0.0020    -1.3060 c3         1 P5B       0.187500
     24 O4           1.0940    -2.1240    -3.8410 o          1 P5B      -0.621800
     25 O3           0.2680    -2.7430    -1.5790 o          1 P5B      -0.621800
     26 C9          -1.5620    -2.2930    -3.4910 c3         1 P5B      -0.202600
     27 C8          -1.7370    -3.7410    -3.9520 c3         1 P5B      -0.073100
     28 N2           2.4870    -2.3620    11.1530 nz         1 P5B      -0.801600
     29 C10         -6.1380     0.6780    -3.6970 ca         1 P5B      -0.098000
     30 C7          -5.1980     0.9870    -4.6560 ca         1 P5B      -0.130000
     31 C3          -3.8760     1.2090    -4.2810 ca         1 P5B      -0.035200
     32 C4          -3.5180     1.1090    -2.9240 ca         1 P5B      -0.106800
     33 C11         -4.4890     0.8010    -1.9690 ca         1 P5B      -0.099000
     34 C6          -5.7810     0.5860    -2.3590 ca         1 P5B      -0.138000
     35 N7          -2.7330     1.5260    -4.9800 na         1 P5B      -0.171400
     36 C13         -1.6760     1.6350    -4.1190 cc         1 P5B      -0.076100
     37 C12         -2.0830     1.3980    -2.8620 cd         1 P5B      -0.195400
     38 HN5         -1.6740    -0.0180     1.1660 hn         1 P5B       0.354500
     39 H15          0.9640    -0.5840     2.3300 h1         1 P5B       0.084700
     40 H181         0.4310     1.7860     3.8400 hc         1 P5B       0.100200
     41 H182         1.1800     0.6640     2.8220 hc         1 P5B       0.100200
     42 H191         2.2970     1.3990     1.7630 hc         1 P5B       0.106700
     43 H192         0.9360     1.9950     0.8020 hc         1 P5B       0.106700
     44 HN6          0.5980    -0.4090     4.9860 hn         1 P5B       0.308500
     45 H211        -2.0800    -0.7000     5.9290 h1         1 P5B       0.082200
     46 H212        -1.4310    -2.3030     5.5550 h1         1 P5B       0.082200
     47 H16         -1.1370     0.6480     7.7060 ha         1 P5B       0.166500
     48 H17          0.1490     0.6890     9.8070 ha         1 P5B       0.145500
     49 H23          1.6310    -3.2460     8.9540 ha         1 P5B       0.145500
     50 H24          0.4190    -3.2280     6.8120 ha         1 P5B       0.166500
     51 HN1          2.1190    -0.2560    12.4770 hn         1 P5B       0.441400
     52 HN31         2.1330     4.4390     0.5600 hn         1 P5B       0.480800
     53 HN32         3.3800     3.5450     1.1210 hn         1 P5B       0.480800
     54 H11A        -0.3670     2.0570    -1.7890 hc         1 P5B       0.044200
     55 H12         -1.8050     1.8010    -0.7900 hc         1 P5B       0.044200
     56 HN4          0.7680     0.1580    -2.8120 hn         1 P5B       0.456800
     57 H5          -1.6120    -0.6580    -1.2270 h1         1 P5B       0.089700
     58 H91         -1.7080    -1.6010    -4.3110 h1         1 P5B       0.098200
     59 H92         -2.1980    -2.0420    -2.6510 h1         1 P5B       0.098200
     60 H81         -0.9930    -3.9740    -4.7040 hc         1 P5B       0.057033
     61 H82         -2.7280    -3.8690    -4.3720 hc         1 P5B       0.057033
     62 H83         -1.6160    -4.4070    -3.1060 hc         1 P5B       0.057033
     63 HN21         2.9220    -2.1900    12.0370 hn         1 P5B       0.467133
     64 HN22         3.1910    -2.5210    10.4600 hn         1 P5B       0.467133
     65 H10         -7.1660     0.5050    -3.9910 ha         1 P5B       0.145000
     66 H7          -5.4860     1.0570    -5.6980 ha         1 P5B       0.140000
     67 H11         -4.2180     0.7280    -0.9230 ha         1 P5B       0.117000
     68 H6          -6.5320     0.3420    -1.6180 ha         1 P5B       0.138000
     69 HN7         -2.6840     1.6580    -5.9710 hn         1 P5B       0.309700
     70 H13         -0.6610     1.8780    -4.4080 h4         1 P5B       0.164000
     71 S1           0.1080    -2.0700    -2.8200 s6         1 P5B       1.310900
     72 H33          2.9390     4.9210     1.8920 hn         1 P5B       0.480800
     73 H231         1.9180    -3.1830    11.2150 hn         1 P5B       0.467133
     74 C26          1.7050    -1.2810    10.8080 ce         1 P5B       0.538800
@<TRIPOS>BOND
     1     1     2 2
     2     1     3 1
     3     1    23 1
     4     3     4 1
     5     3    38 1
     6     4     5 1
     7     4     7 1
     8     4    39 1
     9     5     6 1
    10     5    40 1
    11     5    41 1
    12     6    18 1
    13     6    42 1
    14     6    43 1
    15     7     8 2
    16     7     9 1
    17     9    10 1
    18     9    44 1
    19    10    16 1
    20    10    45 1
    21    10    46 1
    22    11    12 ar
    23    11    16 ar
    24    11    47 1
    25    12    13 ar
    26    12    48 1
    27    13    14 ar
    28    13    74 1
    29    14    15 ar
    30    14    49 1
    31    15    16 ar
    32    15    50 1
    33    74    17 2
    34    74    28 1
    35    17    51 1
    36    18    19 2
    37    18    20 1
    38    20    52 1
    39    20    53 1
    40    21    23 1
    41    21    37 1
    42    21    54 1
    43    21    55 1
    44    22    23 1
    45    22    71 1
    46    22    56 1
    47    23    57 1
    48    71    24 2
    49    71    25 2
    50    71    26 1
    51    26    27 1
    52    26    58 1
    53    26    59 1
    54    27    60 1
    55    27    61 1
    56    27    62 1
    57    28    63 1
    58    28    64 1
    59    29    30 ar
    60    29    34 ar
    61    29    65 1
    62    30    31 ar
    63    30    66 1
    64    31    32 ar
    65    31    35 1
    66    32    33 ar
    67    32    37 1
    68    33    34 ar
    69    33    67 1
    70    34    68 1
    71    35    36 1
    72    35    69 1
    73    36    37 2
    74    36    70 1
    75    72    20 1
    76    73    28 1
@<TRIPOS>SUBSTRUCTURE
     1 P5B         1 TEMP              0 ****  ****    0 ROOT
