@<TRIPOS>MOLECULE
molecule
   51    53     1     0     0
SMALL
bcc


@<TRIPOS>ATOM
      1 C2           0.0000     0.0000     0.0000 ca         1 P5C       1.008900
      2 C3          -0.1090     0.0000     2.3040 ca         1 P5C       0.571200
      3 N1           1.3250     0.0000     0.0000 nb         1 P5C      -0.832000
      4 C4           1.2900    -0.0010     2.3590 ca         1 P5C      -0.582200
      5 C6           2.0050     0.0000     1.1420 ca         1 P5C       0.827200
      6 C8           1.9950    -0.0000     3.6500 c          1 P5C       0.533700
      7 C12          4.0800     0.1530    -0.0660 ca         1 P5C       0.098600
      8 C13          3.5580     0.9520    -1.0750 ca         1 P5C      -0.133000
      9 C14          5.4620     0.4640    -2.4430 ca         1 P5C      -0.107000
     10 C15          5.9860    -0.3320    -1.4400 ca         1 P5C      -0.045300
     11 C16          4.2510     1.1060    -2.2600 ca         1 P5C      -0.114000
     12 C17          5.2980    -0.4890    -0.2520 ca         1 P5C      -0.131000
     13 C18          7.3050    -1.0280    -1.6440 c3         1 P5C      -0.055800
     14 O10          3.2070    -0.1040     3.6820 o          1 P5C      -0.464100
     15 N9           1.2990     0.1160     4.7980 nz         1 P5C      -0.674400
     16 N11          3.3840    -0.0000     1.1370 nu         1 P5C      -0.690300
     17 N5          -0.7040    -0.0000     1.1260 nb         1 P5C      -0.820000
     18 N7          -0.6670     0.0050    -1.2070 nu         1 P5C      -0.903900
     19 C19         -2.1320     0.0050    -1.2340 c3         1 P5C       0.227500
     20 C24         -2.6180     0.6210    -2.5470 c3         1 P5C       0.086500
     21 N25         -2.1270     2.0020    -2.6520 nz         1 P5C      -0.811600
     22 C23         -2.0870    -0.2000    -3.7230 c3         1 P5C      -0.105400
     23 C22         -2.5990    -1.6370    -3.6140 c3         1 P5C      -0.074400
     24 C21         -2.1130    -2.2530    -2.3000 c3         1 P5C      -0.093400
     25 C20         -2.6440    -1.4320    -1.1240 c3         1 P5C      -0.088400
     26 H3          -0.6950    -0.0000     3.2150 h4         1 P5C       0.017100
     27 H13          2.6080     1.4540    -0.9330 ha         1 P5C       0.127000
     28 H14          6.0030     0.5870    -3.3730 ha         1 P5C       0.154000
     29 H16          3.8440     1.7280    -3.0480 ha         1 P5C       0.136000
     30 H17          5.7070    -1.1130     0.5340 ha         1 P5C       0.145000
     31 H18          7.7350    -0.7190    -2.5890 hc         1 P5C       0.059700
     32 H18A         7.1510    -2.1000    -1.6510 hc         1 P5C       0.059700
     33 H18B         7.9800    -0.7660    -0.8370 hc         1 P5C       0.059700
     34 HN9          0.7340     0.9410     4.7640 hn         1 P5C       0.480800
     35 HN9A         1.9340     0.1780     5.5690 hn         1 P5C       0.480800
     36 HN11         3.8870    -0.1270     1.9930 hn         1 P5C       0.495800
     37 HN7         -0.1510     0.0520    -2.0640 hn         1 P5C       0.469800
     38 H19         -2.5130     0.5870    -0.4020 h1         1 P5C       0.092700
     39 H24         -3.7010     0.6170    -2.5670 hx         1 P5C       0.134700
     40 HN25        -2.2270     2.4600    -1.7680 hn         1 P5C       0.457467
     41 HN2A        -2.6570     2.4930    -3.3450 hn         1 P5C       0.457467
     42 H23         -2.4340     0.2350    -4.6530 hc         1 P5C       0.067700
     43 H23A        -1.0040    -0.2010    -3.7010 hc         1 P5C       0.067700
     44 H22         -2.2200    -2.2190    -4.4450 hc         1 P5C       0.080700
     45 H22A        -3.6820    -1.6360    -3.6310 hc         1 P5C       0.080700
     46 H21         -1.0300    -2.2510    -2.2800 hc         1 P5C       0.073700
     47 H21A        -2.4780    -3.2700    -2.2230 hc         1 P5C       0.073700
     48 H20         -2.2970    -1.8680    -0.1950 hc         1 P5C       0.081200
     49 H20A        -3.7270    -1.4310    -1.1460 hc         1 P5C       0.081200
     50 H93          0.7100    -0.6850     4.9130 hn         1 P5C       0.480800
     51 H253        -1.1600     1.9940    -2.9120 hn         1 P5C       0.457467
@<TRIPOS>BOND
     1     1     3 ar
     2     1    17 ar
     3     1    18 1
     4     2     4 ar
     5     2    17 ar
     6     3     5 ar
     7     4     5 ar
     8     4     6 1
     9     5    16 1
    10     6    14 2
    11     6    15 1
    12     7     8 ar
    13     7    12 ar
    14     7    16 1
    15     8    11 ar
    16     9    10 ar
    17     9    11 ar
    18    10    12 ar
    19    10    13 1
    20    18    19 1
    21    19    20 1
    22    19    25 1
    23    20    21 1
    24    20    22 1
    25    22    23 1
    26    23    24 1
    27    24    25 1
    28     2    26 1
    29     8    27 1
    30     9    28 1
    31    11    29 1
    32    12    30 1
    33    13    31 1
    34    13    32 1
    35    13    33 1
    36    15    34 1
    37    15    35 1
    38    16    36 1
    39    18    37 1
    40    19    38 1
    41    20    39 1
    42    21    40 1
    43    21    41 1
    44    22    42 1
    45    22    43 1
    46    23    44 1
    47    23    45 1
    48    24    46 1
    49    24    47 1
    50    25    48 1
    51    25    49 1
    52    50    15 1
    53    51    21 1
@<TRIPOS>SUBSTRUCTURE
     1 P5C         1 TEMP              0 ****  ****    0 ROOT
