@<TRIPOS>MOLECULE
P5K
   60    63     1     0     0
SMALL
bcc


@<TRIPOS>ATOM
      1 C1           0.0000     0.0000     0.0000 cc         1 P5K      -0.095000
      2 C2           1.4470     0.0000     0.0000 cc         1 P5K      -0.281600
      3 C3           1.9780     0.0000     1.2630 cd         1 P5K       0.060500
      4 S4           0.7420    -0.0010     2.4370 ss         1 P5K      -0.125800
      5 C5          -0.5210    -0.0010     1.2180 cd         1 P5K      -0.021400
      6 C6          -1.9980    -0.0010     1.5180 c3         1 P5K       0.028300
      7 C7          -2.6420    -1.2490     0.9110 c3         1 P5K       0.002233
      8 C8          -2.2110    -0.0020     3.0340 c3         1 P5K       0.002233
      9 C9          -2.6400     1.2490     0.9140 c3         1 P5K       0.002233
     10 N10          3.3350    -0.0010     1.5480 ns         1 P5K       0.018900
     11 C11          2.2570     0.0010    -1.2210 c          1 P5K       0.648700
     12 O12          3.1050    -0.8560    -1.3890 o          1 P5K      -0.655100
     13 N13          2.0630     0.9500    -2.1590 n          1 P5K      -0.171800
     14 C14          3.7560    -0.0010     2.8280 c          1 P5K       0.529100
     15 N15          5.0740    -0.0010     3.1040 ns         1 P5K      -0.020100
     16 O16          2.9450    -0.0020     3.7350 o          1 P5K      -0.655100
     17 C17          5.5110    -0.1250     4.4250 ca         1 P5K      -0.085400
     18 C18          4.7130    -0.7370     5.3660 ca         1 P5K      -0.115000
     19 C19          5.1390    -0.8650     6.6860 ca         1 P5K      -0.075000
     20 C20          6.3520    -0.3900     7.0820 ca         1 P5K      -0.105000
     21 C21          7.1960     0.2410     6.1530 ca         1 P5K      -0.020000
     22 C22          6.7760     0.3720     4.8060 ca         1 P5K      -0.044000
     23 C23          2.7910     0.8760    -3.4270 c3         1 P5K       0.065500
     24 C24          1.1220     2.0410    -1.9020 c3         1 P5K       0.065500
     25 C25          8.4540     0.7400     6.5330 ca         1 P5K      -0.080000
     26 C26          9.2460     1.3460     5.6060 ca         1 P5K      -0.103000
     27 C27          8.8300     1.4780     4.2840 ca         1 P5K      -0.090000
     28 C28          7.6230     0.9970     3.8770 ca         1 P5K      -0.108000
     29 C29          1.7990     0.6720    -4.5750 c3         1 P5K      -0.030600
     30 C30         -0.0430     1.9560    -2.8920 c3         1 P5K      -0.030600
     31 S31          0.6100     2.0460    -4.5800 s6         1 P5K       0.796000
     32 O32         -0.4390     1.7360    -5.4870 o          1 P5K      -0.580300
     33 O33          1.3250     3.2640    -4.7330 o          1 P5K      -0.580300
     34 H1          -0.5970     0.0000    -0.9040 ha         1 P5K       0.126000
     35 H7          -2.0690    -2.1240     1.1940 hc         1 P5K       0.010144
     36 H7A         -3.6560    -1.3470     1.2790 hc         1 P5K       0.010144
     37 H7B         -2.6560    -1.1600    -0.1680 hc         1 P5K       0.010144
     38 H8          -3.2730    -0.0070     3.2490 hc         1 P5K       0.010144
     39 H8A         -1.7520    -0.8840     3.4630 hc         1 P5K       0.010144
     40 H8B         -1.7600     0.8850     3.4620 hc         1 P5K       0.010144
     41 H9          -3.6430     1.3650     1.3070 hc         1 P5K       0.010144
     42 H9A         -2.0490     2.1190     1.1700 hc         1 P5K       0.010144
     43 H9B         -2.6840     1.1480    -0.1640 hc         1 P5K       0.010144
     44 HN10         4.0030     0.0040     0.8020 hn         1 P5K       0.181500
     45 HN15         5.7410     0.0410     2.3590 hn         1 P5K       0.168500
     46 H18          3.7430    -1.1240     5.0770 ha         1 P5K       0.157000
     47 H19          4.4940    -1.3500     7.4090 ha         1 P5K       0.104000
     48 H20          6.6660    -0.4990     8.1130 ha         1 P5K       0.107000
     49 H23          3.3360     1.8000    -3.5830 h1         1 P5K       0.050700
     50 H23A         3.4830     0.0430    -3.3970 h1         1 P5K       0.050700
     51 H24          1.6300     2.9900    -2.0250 h1         1 P5K       0.050700
     52 H24A         0.7410     1.9570    -0.8910 h1         1 P5K       0.050700
     53 H25          8.7910     0.6450     7.5580 ha         1 P5K       0.107000
     54 H26         10.2120     1.7380     5.9030 ha         1 P5K       0.102000
     55 H27          9.4790     1.9650     3.5660 ha         1 P5K       0.101000
     56 H28          7.3120     1.1080     2.8450 ha         1 P5K       0.097000
     57 H29          2.3340     0.6530    -5.5160 h1         1 P5K       0.078450
     58 H29A         1.2700    -0.2630    -4.4330 h1         1 P5K       0.078450
     59 H30         -0.7220     2.7830    -2.7230 h1         1 P5K       0.078450
     60 H30A        -0.5650     1.0170    -2.7560 h1         1 P5K       0.078450
@<TRIPOS>BOND
     1     1     2 1   
     2     1     5 2   
     3     1    34 1   
     4     2     3 2   
     5     2    11 1   
     6     3     4 1   
     7     3    10 1   
     8     4     5 1   
     9     5     6 1   
    10     6     7 1   
    11     6     8 1   
    12     6     9 1   
    13     7    35 1   
    14     7    36 1   
    15     7    37 1   
    16     8    38 1   
    17     8    39 1   
    18     8    40 1   
    19     9    41 1   
    20     9    42 1   
    21     9    43 1   
    22    10    14 1   
    23    10    44 1   
    24    11    12 2   
    25    11    13 1   
    26    13    23 1   
    27    13    24 1   
    28    14    15 1   
    29    14    16 2   
    30    15    17 1   
    31    15    45 1   
    32    17    18 ar  
    33    17    22 ar  
    34    18    19 ar  
    35    18    46 1   
    36    19    20 ar  
    37    19    47 1   
    38    20    21 ar  
    39    20    48 1   
    40    21    22 ar  
    41    21    25 ar  
    42    22    28 ar  
    43    23    29 1   
    44    23    49 1   
    45    23    50 1   
    46    24    30 1   
    47    24    51 1   
    48    24    52 1   
    49    25    26 ar  
    50    25    53 1   
    51    26    27 ar  
    52    26    54 1   
    53    27    28 ar  
    54    27    55 1   
    55    28    56 1   
    56    29    31 1   
    57    29    57 1   
    58    29    58 1   
    59    30    31 1   
    60    30    59 1   
    61    30    60 1   
    62    31    32 2   
    63    31    33 2   
@<TRIPOS>SUBSTRUCTURE
     1 P5K         1 TEMP              0 ****  ****    0 ROOT
