@<TRIPOS>MOLECULE
P5M
   36    38     1     0     0
SMALL
bcc


@<TRIPOS>ATOM
      1 O30         0.1920    0.7280   -0.2590 oh        1 P5M     -0.221000
      2 C2          1.4210    0.1450   -0.2560 ca        1 P5M      0.223000
      3 C3          2.1200    0.1940    0.9950 ca        1 P5M     -0.194000
      4 C9          1.5970    0.7770    2.1580 c2        1 P5M      0.102000
      5 C10         2.3780    0.7710    3.3200 c2        1 P5M     -0.072000
      6 O27         1.8610    1.4120    4.4220 oh        1 P5M     -0.227000
      7 C1          1.9840   -0.4660   -1.3690 ca        1 P5M     -0.328000
      8 C6          3.2680   -1.0490   -1.2680 ca        1 P5M      0.235000
      9 O29         3.8750   -1.6610   -2.3150 oh        1 P5M     -0.198000
     10 C5          4.0000   -1.0270   -0.0640 ca        1 P5M     -0.219000
     11 C4          3.4120   -0.4050    1.0340 ca        1 P5M      0.153000
     12 O12         4.1640   -0.3950    2.1940 os        1 P5M     -0.057000
     13 C11         3.6670    0.2040    3.3170 c2        1 P5M      0.223000
     14 C14         4.5790    0.1300    4.4380 ca        1 P5M     -0.119000
     15 C15         5.4810   -0.9430    4.5250 ca        1 P5M     -0.085000
     16 C16         6.3590   -1.0250    5.6120 ca        1 P5M      0.077000
     17 O22         7.2000   -2.1050    5.6500 oh        1 P5M     -0.227000
     18 C19         4.5690    1.1440    5.4170 ca        1 P5M     -0.151000
     19 C18         5.4520    1.0660    6.4900 ca        1 P5M      0.035000
     20 O21         5.5380    1.9800    7.5190 os        1 P5M     -0.218000
     21 C23         4.7900    3.1860    7.3650 c3        1 P5M     -0.074000
     22 C17         6.3530   -0.0220    6.6060 ca        1 P5M      0.063000
     23 O24         7.2350   -0.1710    7.6360 oh        1 P5M     -0.237000
     24 H1         -0.2030    0.6460   -1.1450 ho        1 P5M      0.262000
     25 H2          0.5890    1.2350    2.1620 ha        1 P5M      0.210000
     26 H3          1.9610    0.8140    5.1840 ho        1 P5M      0.242000
     27 H4          1.4400   -0.4990   -2.3250 ha        1 P5M      0.174000
     28 H5          3.2970   -1.6220   -3.0980 ho        1 P5M      0.255000
     29 H6          5.0000   -1.4830   -0.0060 ha        1 P5M      0.204000
     30 H7          5.5090   -1.7310    3.7550 ha        1 P5M      0.175000
     31 H8          7.7570   -2.0370    6.4440 ho        1 P5M      0.256000
     32 H9          3.8940    2.0100    5.3150 ha        1 P5M      0.169000
     33 H10         5.0840    3.7150    6.4270 h1        1 P5M      0.099333
     34 H11         3.6950    2.9650    7.3740 h1        1 P5M      0.099333
     35 H12         5.0830    3.7800    8.2690 h1        1 P5M      0.099333
     36 H13         7.1560    0.5930    8.2340 ho        1 P5M      0.269000
@<TRIPOS>BOND
     1    1    2 1   
     2    1   24 1   
     3    2    3 1   
     4    2    7 1   
     5    3    4 1   
     6    3   11 1   
     7    4    5 1   
     8    4   25 1   
     9    5    6 1   
    10    5   13 1   
    11    6   26 1   
    12    7    8 1   
    13    7   27 1   
    14    8    9 1   
    15    8   10 1   
    16    9   28 1   
    17   10   11 1   
    18   10   29 1   
    19   11   12 1   
    20   12   13 1   
    21   13   14 1   
    22   14   15 1   
    23   14   18 1   
    24   15   16 1   
    25   15   30 1   
    26   16   17 1   
    27   16   22 1   
    28   17   31 1   
    29   18   19 1   
    30   18   32 1   
    31   19   20 1   
    32   19   22 1   
    33   20   21 1   
    34   21   33 1   
    35   21   34 1   
    36   21   35 1   
    37   22   23 1   
    38   23   36 1   
@<TRIPOS>SUBSTRUCTURE
     1 P5M         1 TEMP              0 ****  ****    0 ROOT
