@<TRIPOS>MOLECULE
molecule
   44    45     1     0     0
SMALL
bcc


@<TRIPOS>ATOM
      1 C            0.0000     0.0000     0.0000 c          1 P61       0.806300
      2 F           -3.6140     3.9860     3.6270 f          1 P61      -0.130900
      3 N           -0.0350    -0.0000     2.3580 ne         1 P61      -0.511300
      4 OXT          1.3520     0.0000     0.0000 o          1 P61      -0.861800
      5 P           -4.1750    -0.5150     7.7340 p5         1 P61       1.187900
      6 N1           1.3990    -0.4940     7.0650 na         1 P61      -0.594800
      7 C2           2.0930    -0.3800     5.9030 cd         1 P61      -0.007200
      8 C3           1.4400    -0.2540     4.7180 cc         1 P61       0.074100
      9 O3           2.1370    -0.1410     3.5570 oh         1 P61      -0.463100
     10 C4           0.0220    -0.2420     4.7080 cd         1 P61      -0.003000
     11 C5          -0.6640    -0.3610     5.9390 cd         1 P61      -0.129200
     12 C6           0.0430    -0.4890     7.0840 cc         1 P61       0.035000
     13 CA          -0.6990     0.0000     1.2080 cf         1 P61       0.339300
     14 CB          -2.2050    -0.0010     1.2090 c3         1 P61      -0.124400
     15 CG          -2.7070     1.4200     1.2260 ca         1 P61      -0.018300
     16 CZ          -3.6320     4.0290     1.2540 ca         1 P61       0.011100
     17 O1P         -4.3100    -0.8080     9.3100 o          1 P61      -0.914500
     18 O2P         -4.8650    -1.5810     6.9730 o          1 P61      -0.914500
     19 O3P         -4.8450     0.9080     7.3920 o          1 P61      -0.914500
     20 C4A         -0.6880    -0.1110     3.4970 ce         1 P61      -0.061400
     21 C5A         -2.1720    -0.3520     5.9730 c3         1 P61       0.266600
     22 CD1         -2.9330     2.0580     2.4320 ca         1 P61      -0.144000
     23 CD2         -2.9380     2.0860     0.0360 ca         1 P61      -0.122000
     24 CE1         -3.3940     3.3620     2.4490 ca         1 P61       0.122900
     25 CE2         -3.3990     3.3880     0.0470 ca         1 P61      -0.159000
     26 O           -0.6100     0.0050    -1.0560 o          1 P61      -0.861800
     27 HO3          2.4700     0.7370     3.4740 ho         1 P61       0.400000
     28 H6          -0.4790    -0.5810     8.0280 h4         1 P61       0.201000
     29 HN           1.9000    -0.5870     7.9270 hn         1 P61       0.413800
     30 HB          -2.5670    -0.5010     0.3180 hc         1 P61       0.061700
     31 HBA         -2.5660    -0.5220     2.0870 hc         1 P61       0.061700
     32 HOH         -5.0210     5.3150     1.1480 ho         1 P61       0.394000
     33 H2A          3.9740     0.5900     5.6760 hc         1 P61       0.030700
     34 H2AA         3.9410    -0.6690     6.9180 hc         1 P61       0.030700
     35 H2AB         3.9650    -1.1160     5.2060 hc         1 P61       0.030700
     36 H4A         -1.7710    -0.1030     3.5030 h4         1 P61       0.111000
     37 H5A         -2.5370     0.5820     5.5620 h1         1 P61       0.032700
     38 H5AA        -2.5510    -1.1780     5.3830 h1         1 P61       0.032700
     39 HD1         -2.7950     1.5210     3.3620 ha         1 P61       0.183000
     40 HD2         -2.7560     1.5850    -0.9070 ha         1 P61       0.158000
     41 HE2         -3.5790     3.9070    -0.8870 ha         1 P61       0.111000
     42 OH          -4.0850     5.3110     1.2670 oh         1 P61      -0.528100
     43 C2A          3.5990    -0.3950     5.9270 c3         1 P61      -0.036900
     44 O4P         -2.6190    -0.4860     7.3230 os         1 P61      -0.595200
@<TRIPOS>BOND
     1    26     1 1
     2     1    13 1
     3     1     4 1
     4     2    24 1
     5    13     3 2
     6     3    20 1
     7    18     5 1
     8    17     5 1
     9     5    19 1
    10     5    44 1
    11    12     6 1
    12     7     6 1
    13     8     7 2
    14     7    43 1
    15    10     8 1
    16     9     8 1
    17     9    27 1
    18    20    10 2
    19    10    11 1
    20    21    11 1
    21    11    12 2
    22    12    28 1
    23    14    13 1
    24    15    14 1
    25    14    30 1
    26    14    31 1
    27    22    15 ar
    28    15    23 ar
    29    42    16 1
    30    42    32 1
    31    24    16 ar
    32    16    25 ar
    33    43    33 1
    34    43    34 1
    35    43    35 1
    36    20    36 1
    37    21    44 1
    38    21    37 1
    39    21    38 1
    40    24    22 ar
    41    22    39 1
    42    25    23 ar
    43    23    40 1
    44    25    41 1
    45     6    29 1
@<TRIPOS>SUBSTRUCTURE
     1 P61         1 TEMP              0 ****  ****    0 ROOT
