@<TRIPOS>MOLECULE
molecule
   45    48     1     0     0
SMALL
bcc


@<TRIPOS>ATOM
      1 N01          0.0000     0.0000     0.0000 nc         1 P63      -0.597100
      2 C02          1.3060     0.0000     0.0000 cd         1 P63       0.466500
      3 C03          1.7590     0.0000     1.3350 cd         1 P63      -0.226300
      4 C04          0.6180     0.0020     2.1520 cc         1 P63       0.504500
      5 N05         -0.4670     0.0010     1.3170 na         1 P63      -0.149600
      6 N06          0.4350     0.0030     3.4750 nc         1 P63      -0.800000
      7 C07         -0.7920     0.0030     3.9750 cd         1 P63       0.967900
      8 N08         -1.8610     0.0030     3.1740 nd         1 P63      -0.808000
      9 C09         -1.7220     0.0030     1.8620 cc         1 P63       0.840400
     10 N10         -2.8280     0.0030     1.0500 nu         1 P63      -0.681300
     11 C11         -4.1050     0.1200     1.6090 ca         1 P63       0.109600
     12 C12         -4.3040     0.9100     2.7330 ca         1 P63      -0.117000
     13 C13         -5.5660     1.0230     3.2820 ca         1 P63      -0.109500
     14 C14         -6.6320     0.3500     2.7120 ca         1 P63      -0.169000
     15 C15         -6.4380    -0.4380     1.5920 ca         1 P63      -0.109500
     16 C16         -5.1790    -0.5500     1.0350 ca         1 P63      -0.117000
     17 N17         -0.9690     0.0040     5.3440 nu         1 P63      -0.695300
     18 C18          0.1380    -0.1130     6.1910 ca         1 P63       0.069600
     19 C19          0.1550     0.5580     7.4060 ca         1 P63      -0.196000
     20 C20          1.2550     0.4400     8.2440 ca         1 P63      -0.014400
     21 C21          2.3340    -0.3490     7.8650 ca         1 P63      -0.106000
     22 C22          2.3130    -1.0150     6.6550 ca         1 P63      -0.122000
     23 C23          1.2180    -0.9040     5.8210 ca         1 P63      -0.125000
     24 C25          3.1230    -0.0010     1.7730 ch         1 P63       0.255500
     25 N26          4.2000    -0.0170     2.1320 n1         1 P63      -0.382800
     26 N27          1.2770     1.1150     9.4700 ns         1 P63      -0.345100
     27 C28          0.1380     1.2770    10.1700 c          1 P63       0.624100
     28 O29         -0.8890     0.7530     9.7900 o          1 P63      -0.608100
     29 C30          0.1370     2.1100    11.4270 c3         1 P63      -0.201100
     30 H02          1.5830     0.1470    -1.0370 h4         1 P63       0.079800
     31 HN10        -2.7140    -0.6760     0.3240 hn         1 P63       0.447800
     32 H12         -3.4510     1.3770     3.2100 ha         1 P63       0.143500
     33 H13         -6.0610     1.6760     3.9900 ha         1 P63       0.142000
     34 H14         -7.6370     0.3340     3.1160 ha         1 P63       0.133000
     35 H15         -7.3950    -0.8480     1.2940 ha         1 P63       0.142000
     36 H16         -4.8140    -1.3210     0.3670 ha         1 P63       0.143500
     37 HN17        -0.8210     0.7350     6.0120 hn         1 P63       0.494800
     38 H19         -0.7620     0.9390     7.8400 ha         1 P63       0.187000
     39 H21          2.9260    -0.6000     8.7370 ha         1 P63       0.135000
     40 H22          2.9280    -1.7810     6.1990 ha         1 P63       0.147000
     41 H23          1.4300    -1.7630     5.1960 ha         1 P63       0.160000
     42 HN27         1.1100     0.5280    10.2630 hn         1 P63       0.273500
     43 H301        -0.4480     1.7390    12.2600 hc         1 P63       0.070700
     44 H302         1.1440     2.3160    11.7700 hc         1 P63       0.070700
     45 H303        -0.0300     3.1770    11.5080 hc         1 P63       0.070700
@<TRIPOS>BOND
     1     1     2 2
     2     1     5 1
     3     2     3 1
     4     2    30 1
     5     3    24 1
     6     3     4 2
     7     4     6 1
     8     4     5 1
     9     5     9 1
    10     6     7 2
    11     7    17 1
    12     7     8 1
    13     8     9 2
    14     9    10 1
    15    10    11 1
    16    10    31 1
    17    11    16 ar
    18    11    12 ar
    19    12    13 ar
    20    12    32 1
    21    13    14 ar
    22    13    33 1
    23    14    15 ar
    24    14    34 1
    25    15    16 ar
    26    15    35 1
    27    16    36 1
    28    17    18 1
    29    17    37 1
    30    18    19 ar
    31    18    23 ar
    32    19    20 ar
    33    19    38 1
    34    20    26 1
    35    20    21 ar
    36    21    22 ar
    37    21    39 1
    38    22    23 ar
    39    22    40 1
    40    23    41 1
    41    24    25 3
    42    26    27 1
    43    26    42 1
    44    27    28 2
    45    27    29 1
    46    29    43 1
    47    29    44 1
    48    29    45 1
@<TRIPOS>SUBSTRUCTURE
     1 P63         1 TEMP              0 ****  ****    0 ROOT
