@<TRIPOS>MOLECULE
P63
   45    50     1     0     0
SMALL
bcc


@<TRIPOS>ATOM
      1 N01          0.0000     0.0000     0.0000 n2         1 P63      -0.293000
      2 C02          1.3060     0.0000     0.0000 c2         1 P63       0.027000
      3 C03          1.7590     0.0000     1.3350 c2         1 P63      -0.140000
      4 C04          0.6180     0.0020     2.1520 c2         1 P63      -0.052000
      5 N05         -0.4670     0.0010     1.3170 na         1 P63       0.317000
      6 N06          0.4350     0.0030     3.4750 n2         1 P63      -0.158000
      7 C07         -0.7920     0.0030     3.9750 c2         1 P63       0.071000
      8 N08         -1.8610     0.0030     3.1740 n2         1 P63      -0.176000
      9 C09         -1.7220     0.0030     1.8620 c2         1 P63      -0.054000
     10 N10         -2.8280     0.0030     1.0500 nu         1 P63       0.223000
     11 C11         -4.1050     0.1200     1.6090 ca         1 P63      -0.122000
     12 C12         -4.3040     0.9100     2.7330 ca         1 P63      -0.086000
     13 C13         -5.5660     1.0230     3.2820 ca         1 P63      -0.079000
     14 C14         -6.6320     0.3500     2.7120 ca         1 P63      -0.148000
     15 C15         -6.4380    -0.4380     1.5920 ca         1 P63      -0.079000
     16 C16         -5.1790    -0.5500     1.0350 ca         1 P63      -0.086000
     17 N17         -0.9690     0.0040     5.3440 nu         1 P63       0.022000
     18 C18          0.1380    -0.1130     6.1910 c3         1 P63      -0.059000
     19 C19          0.1550     0.5580     7.4060 c2         1 P63      -0.186000
     20 C20          1.2550     0.4400     8.2440 c2         1 P63      -0.066000
     21 C21          2.3340    -0.3490     7.8650 c2         1 P63      -0.086000
     22 C22          2.3130    -1.0150     6.6550 c2         1 P63      -0.086000
     23 C23          1.2180    -0.9040     5.8210 c2         1 P63      -0.129000
     24 C25          3.1230    -0.0010     1.7730 c1         1 P63      -0.040000
     25 N26          4.2000    -0.0170     2.1320 n1         1 P63      -0.079000
     26 N27          1.2770     1.1150     9.4700 n7         1 P63       0.003000
     27 C28          0.1380     1.2770    10.1700 c3         1 P63       0.289000
     28 O29         -0.8890     0.7530     9.7900 o          1 P63      -0.411000
     29 C30          0.1370     2.1100    11.4270 c3         1 P63      -0.170000
     30 H02          1.5830     0.1470    -1.0370 h4         1 P63       0.162000
     31 HN10        -2.7140    -0.6760     0.3240 hn         1 P63       0.081000
     32 H12         -3.4510     1.3770     3.2100 ha         1 P63       0.117500
     33 H13         -6.0610     1.6760     3.9900 ha         1 P63       0.112500
     34 H14         -7.6370     0.3340     3.1160 ha         1 P63       0.107000
     35 H15         -7.3950    -0.8480     1.2940 ha         1 P63       0.112500
     36 H16         -4.8140    -1.3210     0.3670 ha         1 P63       0.117500
     37 HN17        -0.8210     0.7350     6.0120 DU         1 P63       0.188000
     38 H19         -0.7620     0.9390     7.8400 ha         1 P63       0.170000
     39 H21          2.9260    -0.6000     8.7370 ha         1 P63       0.105000
     40 H22          2.9280    -1.7810     6.1990 ha         1 P63       0.116000
     41 H23          1.4300    -1.7630     5.1960 ha         1 P63       0.135000
     42 HN27         1.1100     0.5280    10.2630 DU         1 P63       0.102000
     43 H301        -0.4480     1.7390    12.2600 hc         1 P63       0.068667
     44 H302         1.1440     2.3160    11.7700 hc         1 P63       0.068667
     45 H303        -0.0300     3.1770    11.5080 hc         1 P63       0.068667
@<TRIPOS>BOND
     1     1     2 1   
     2     1     5 1   
     3     2     3 1   
     4     2    30 1   
     5     3     4 1   
     6     3    24 1   
     7     4     5 1   
     8     4     6 1   
     9     5     9 1   
    10     6     7 1   
    11     7     8 1   
    12     7    17 1   
    13     8     9 1   
    14     9    10 1   
    15    10    11 1   
    16    10    31 1   
    17    11    12 1   
    18    11    16 1   
    19    12    13 1   
    20    12    32 1   
    21    13    14 1   
    22    13    33 1   
    23    14    15 1   
    24    14    34 1   
    25    15    16 1   
    26    15    35 1   
    27    16    36 1   
    28    17    18 1   
    29    17    37 1   
    30    18    19 1   
    31    18    23 1   
    32    18    37 1   
    33    19    20 1   
    34    19    38 1   
    35    20    21 1   
    36    20    26 1   
    37    21    22 1   
    38    21    39 1   
    39    22    23 1   
    40    22    40 1   
    41    23    41 1   
    42    24    25 1   
    43    26    27 1   
    44    26    42 1   
    45    27    28 1   
    46    27    29 1   
    47    27    42 1   
    48    29    43 1   
    49    29    44 1   
    50    29    45 1   
@<TRIPOS>SUBSTRUCTURE
     1 P63         1 TEMP              0 ****  ****    0 ROOT
