@<TRIPOS>MOLECULE
P64
   48    50     1     0     0
SMALL
bcc


@<TRIPOS>ATOM
      1 C28          0.0000     0.0000     0.0000 c3         1 P64       0.214100
      2 N27          1.4650     0.0000     0.0000 nh         1 P64      -0.399000
      3 C29          2.1970     0.0000     1.2690 c3         1 P64       0.214100
      4 C26          2.1640    -0.0010    -3.6080 ca         1 P64      -0.046500
      5 C25          1.4710    -0.0010    -2.4130 ca         1 P64      -0.190000
      6 C24          2.1640    -0.0010    -1.2090 ca         1 P64       0.078600
      7 C23          3.5530    -0.0000    -1.2110 ca         1 P64      -0.190000
      8 C22          4.2400    -0.0010    -2.4090 ca         1 P64      -0.046500
      9 C21          3.5470    -0.0070    -3.6060 ca         1 P64      -0.153300
     10 C14          4.3010    -0.0060    -4.9110 c3         1 P64       0.039900
     11 C13          4.5620    -1.4490    -5.3490 c3         1 P64       0.141800
     12 N12          5.2960    -1.4500    -6.6210 n7         1 P64      -0.585200
     13 C11          5.5650    -2.8210    -7.0730 c3         1 P64       0.199100
     14 C10          8.3880    -2.7190    -9.5790 ca         1 P64       0.436600
     15 C09          7.6790    -2.7570    -8.3660 ca         1 P64      -0.167300
     16 C08          6.3180    -2.7800    -8.3780 ca         1 P64      -0.067300
     17 C07          5.6110    -2.7690    -9.5780 ca         1 P64      -0.106000
     18 C06          6.2630    -2.7320   -10.7730 ca         1 P64      -0.063000
     19 C05          7.6660    -2.7070   -10.7970 ca         1 P64      -0.205300
     20 C04          8.3760    -2.6690   -12.0150 ca         1 P64      -0.007000
     21 C03          9.7370    -2.6450   -11.9690 ca         1 P64      -0.282300
     22 C02         10.3940    -2.6590   -10.7290 ca         1 P64       0.515200
     23 N02         11.7800    -2.6340   -10.6980 nv         1 P64      -0.529500
     24 N01          9.7250    -2.6990    -9.5950 nb         1 P64      -0.670000
     25 H1          -0.3610    -0.8840    -0.5110 h1         1 P64       0.003533
     26 H2          -0.3610     0.8850    -0.5100 h1         1 P64       0.003533
     27 H3          -0.3610    -0.0010     1.0210 h1         1 P64       0.003533
     28 H4           2.8210    -0.8840     1.3260 h1         1 P64       0.003533
     29 H5           1.4930    -0.0010     2.0920 h1         1 P64       0.003533
     30 H6           2.8190     0.8850     1.3270 h1         1 P64       0.003533
     31 H8           0.3870     0.0030    -2.4150 ha         1 P64       0.114000
     32 H9           4.0960     0.0040    -0.2740 ha         1 P64       0.114000
     33 H10          5.3230    -0.0030    -2.4110 ha         1 P64       0.101500
     34 H11          5.2450     0.5080    -4.7820 hc         1 P64       0.020200
     35 H12          3.7140     0.5000    -5.6680 hc         1 P64       0.020200
     36 H13          5.1500    -1.9550    -4.5920 h1         1 P64       0.008700
     37 H14          3.6180    -1.9640    -5.4770 h1         1 P64       0.008700
     38 H15          6.1620    -0.9600    -6.5070 hn         1 P64       0.256800
     39 H17          6.1600    -3.3370    -6.3290 h1         1 P64       0.009700
     40 H18          4.6280    -3.3450    -7.2130 h1         1 P64       0.009700
     41 H19          8.2140    -2.8500    -7.4290 ha         1 P64       0.117000
     42 H20          4.5280    -2.7890    -9.5600 ha         1 P64       0.109000
     43 H21          5.7030    -2.7240   -11.7000 ha         1 P64       0.102000
     44 H22          7.8520    -2.6590   -12.9630 ha         1 P64       0.106000
     45 H23         10.3110    -2.6890   -12.8870 ha         1 P64       0.113000
     46 H24         12.2990    -2.6010   -11.5530 hn         1 P64       0.269800
     47 H25         12.2610    -2.6460    -9.8210 hn         1 P64       0.269800
     48 H7           1.6240    -0.0030    -4.5470 ha         1 P64       0.101500
@<TRIPOS>BOND
     1     1     2 1   
     2     1    25 1   
     3     1    26 1   
     4     1    27 1   
     5     2     3 1   
     6     2     6 1   
     7     3    28 1   
     8     3    29 1   
     9     3    30 1   
    10     4     5 ar  
    11     4     9 ar  
    12     4    48 1   
    13     5     6 ar  
    14     5    31 1   
    15     6     7 ar  
    16     7     8 ar  
    17     7    32 1   
    18     8     9 ar  
    19     8    33 1   
    20     9    10 1   
    21    10    11 1   
    22    10    34 1   
    23    10    35 1   
    24    11    12 1   
    25    11    36 1   
    26    11    37 1   
    27    12    13 1   
    28    12    38 1   
    29    13    16 1   
    30    13    39 1   
    31    13    40 1   
    32    14    15 ar  
    33    14    19 ar  
    34    14    24 ar  
    35    15    16 ar  
    36    15    41 1   
    37    16    17 ar  
    38    17    18 ar  
    39    17    42 1   
    40    18    19 ar  
    41    18    43 1   
    42    19    20 ar  
    43    20    21 ar  
    44    20    44 1   
    45    21    22 ar  
    46    21    45 1   
    47    22    23 1   
    48    22    24 ar  
    49    23    46 1   
    50    23    47 1   
@<TRIPOS>SUBSTRUCTURE
     1 P64         1 TEMP              0 ****  ****    0 ROOT
