@<TRIPOS>MOLECULE
P65
   38    39     1     0     0
SMALL
bcc


@<TRIPOS>ATOM
      1 NH2          0.0000     0.0000     0.0000 nv         1 P65      -0.613500
      2 C5           1.3880     0.0000     0.0000 ca         1 P65       0.554200
      3 N4           2.0620     0.0000     1.1440 nb         1 P65      -0.705000
      4 C3           3.3880    -0.0050     1.1470 ca         1 P65       0.718900
      5 NH1          4.0590    -0.0040     2.3600 nv         1 P65      -0.525500
      6 N2           4.0860    -0.0100     0.0230 nb         1 P65      -0.685000
      7 C6           2.0980    -0.0060    -1.2070 ca         1 P65      -0.203500
      8 C1           3.4820    -0.0100    -1.1560 ca         1 P65       0.442600
      9 CM1          4.2900    -0.0170    -2.4280 c3         1 P65      -0.044400
     10 O7           1.4450    -0.0110    -2.4010 os         1 P65      -0.301900
     11 C8           1.1320     1.2580    -2.9770 c3         1 P65       0.208400
     12 C9           0.4030     1.0520    -4.3050 c3         1 P65      -0.042400
     13 C10          0.0690     2.4120    -4.9210 c3         1 P65       0.206400
     14 O11         -0.6110     2.2180    -6.1630 os         1 P65      -0.291900
     15 C12         -0.9820     3.3350    -6.8450 ca         1 P65       0.169100
     16 C17         -0.6970     4.5890    -6.3290 ca         1 P65      -0.197000
     17 C16         -1.0740     5.7230    -7.0230 ca         1 P65       0.003400
     18 Cl3         -0.7180     7.2950    -6.3770 cl         1 P65       0.000600
     19 C15         -1.7360     5.6070    -8.2330 ca         1 P65      -0.075600
     20 Cl2         -2.2080     7.0320    -9.1040 cl         1 P65       0.003600
     21 C14         -2.0210     4.3550    -8.7500 ca         1 P65      -0.050000
     22 C13         -1.6420     3.2190    -8.0600 ca         1 P65      -0.074600
     23 Cl1         -2.0000     1.6500    -8.7090 cl         1 P65       0.009600
     24 H1          -0.5000     0.8040    -0.3230 hn         1 P65       0.277300
     25 H2          -0.5000    -0.7910     0.3560 hn         1 P65       0.277300
     26 H3           4.9390    -0.4730     2.4440 hn         1 P65       0.275300
     27 H4           3.6470     0.4350     3.1590 hn         1 P65       0.275300
     28 H5           5.2830    -0.3990    -2.2230 hc         1 P65       0.019367
     29 H6           4.3640     0.9920    -2.8140 hc         1 P65       0.019367
     30 H7           3.8050    -0.6500    -3.1610 hc         1 P65       0.019367
     31 H8           0.4970     1.8150    -2.2990 h1         1 P65      -0.006800
     32 H9           2.0480     1.8110    -3.1490 h1         1 P65      -0.006800
     33 H10          1.0390     0.4950    -4.9830 hc         1 P65       0.035700
     34 H11         -0.5120     0.4990    -4.1330 hc         1 P65       0.035700
     35 H12         -0.5680     2.9680    -4.2440 h1         1 P65       0.003700
     36 H13          0.9840     2.9650    -5.0930 h1         1 P65       0.003700
     37 H14         -0.1520     4.6810    -5.3970 ha         1 P65       0.136000
     38 H15         -2.5380     4.2660    -9.6980 ha         1 P65       0.129000
@<TRIPOS>BOND
     1     1     2 1   
     2     1    24 1   
     3     1    25 1   
     4     2     3 ar  
     5     2     7 ar  
     6     3     4 ar  
     7     4     5 1   
     8     4     6 ar  
     9     5    26 1   
    10     5    27 1   
    11     6     8 ar  
    12     7     8 ar  
    13     7    10 1   
    14     8     9 1   
    15     9    28 1   
    16     9    29 1   
    17     9    30 1   
    18    10    11 1   
    19    11    12 1   
    20    11    31 1   
    21    11    32 1   
    22    12    13 1   
    23    12    33 1   
    24    12    34 1   
    25    13    14 1   
    26    13    35 1   
    27    13    36 1   
    28    14    15 1   
    29    15    16 ar  
    30    15    22 ar  
    31    16    17 ar  
    32    16    37 1   
    33    17    18 1   
    34    17    19 ar  
    35    19    20 1   
    36    19    21 ar  
    37    21    22 ar  
    38    21    38 1   
    39    22    23 1   
@<TRIPOS>SUBSTRUCTURE
     1 P65         1 TEMP              0 ****  ****    0 ROOT
