@<TRIPOS>MOLECULE
molecule
   38    39     1     0     0
SMALL
bcc


@<TRIPOS>ATOM
      1 NH2          0.0000     0.0000     0.0000 nv         1 P65      -1.058500
      2 C5           1.3880     0.0000     0.0000 ca         1 P65       0.739200
      3 N4           2.0620     0.0000     1.1440 nb         1 P65      -0.817000
      4 C3           3.3880    -0.0050     1.1470 ca         1 P65       0.956900
      5 NH1          4.0590    -0.0040     2.3600 nv         1 P65      -1.004500
      6 N2           4.0860    -0.0100     0.0230 nb         1 P65      -0.796000
      7 C6           2.0980    -0.0060    -1.2070 ca         1 P65      -0.211500
      8 C1           3.4820    -0.0100    -1.1560 ca         1 P65       0.493600
      9 CM1          4.2900    -0.0170    -2.4280 c3         1 P65      -0.143400
     10 O7           1.4450    -0.0110    -2.4010 os         1 P65      -0.324900
     11 C8           1.1320     1.2580    -2.9770 c3         1 P65       0.142400
     12 C9           0.4030     1.0520    -4.3050 c3         1 P65      -0.083400
     13 C10          0.0690     2.4120    -4.9210 c3         1 P65       0.136400
     14 O11         -0.6110     2.2180    -6.1630 os         1 P65      -0.307900
     15 C12         -0.9820     3.3350    -6.8450 ca         1 P65       0.161100
     16 C17         -0.6970     4.5890    -6.3290 ca         1 P65      -0.206000
     17 C16         -1.0740     5.7230    -7.0230 ca         1 P65       0.069400
     18 Cl3         -0.7180     7.2950    -6.3770 cl         1 P65      -0.077400
     19 C15         -1.7360     5.6070    -8.2330 ca         1 P65      -0.002600
     20 Cl2         -2.2080     7.0320    -9.1040 cl         1 P65      -0.077400
     21 C14         -2.0210     4.3550    -8.7500 ca         1 P65      -0.073000
     22 C13         -1.6420     3.2190    -8.0600 ca         1 P65       0.001400
     23 Cl1         -2.0000     1.6500    -8.7090 cl         1 P65      -0.073400
     24 H1          -0.5000     0.8040    -0.3230 hn         1 P65       0.441300
     25 H2          -0.5000    -0.7910     0.3560 hn         1 P65       0.441300
     26 H3           4.9390    -0.4730     2.4440 hn         1 P65       0.449300
     27 H4           3.6470     0.4350     3.1590 hn         1 P65       0.449300
     28 H5           5.2830    -0.3990    -2.2230 hc         1 P65       0.058700
     29 H6           4.3640     0.9920    -2.8140 hc         1 P65       0.058700
     30 H7           3.8050    -0.6500    -3.1610 hc         1 P65       0.058700
     31 H8           0.4970     1.8150    -2.2990 h1         1 P65       0.025200
     32 H9           2.0480     1.8110    -3.1490 h1         1 P65       0.025200
     33 H10          1.0390     0.4950    -4.9830 hc         1 P65       0.071700
     34 H11         -0.5120     0.4990    -4.1330 hc         1 P65       0.071700
     35 H12         -0.5680     2.9680    -4.2440 h1         1 P65       0.039200
     36 H13          0.9840     2.9650    -5.0930 h1         1 P65       0.039200
     37 H14         -0.1520     4.6810    -5.3970 ha         1 P65       0.159000
     38 H15         -2.5380     4.2660    -9.6980 ha         1 P65       0.167000
@<TRIPOS>BOND
     1     5     4 1
     2     4     6 ar
     3     4     3 ar
     4     6     8 ar
     5     3     2 ar
     6     8     9 1
     7     8     7 ar
     8     2     7 ar
     9     2     1 1
    10     7    10 1
    11    10    11 1
    12    11    12 1
    13    23    22 1
    14    22    21 ar
    15    22    15 ar
    16    21    19 ar
    17    12    13 1
    18    14    15 1
    19    14    13 1
    20    15    16 ar
    21    19    20 1
    22    19    17 ar
    23    16    17 ar
    24    17    18 1
    25     1    24 1
    26     1    25 1
    27     5    26 1
    28     5    27 1
    29     9    28 1
    30     9    29 1
    31     9    30 1
    32    11    31 1
    33    11    32 1
    34    12    33 1
    35    12    34 1
    36    13    35 1
    37    13    36 1
    38    16    37 1
    39    21    38 1
@<TRIPOS>SUBSTRUCTURE
     1 P65         1 TEMP              0 ****  ****    0 ROOT
