@<TRIPOS>MOLECULE
P66
   46    50     1     0     0
SMALL
bcc


@<TRIPOS>ATOM
      1 N1           0.0000     0.0000     0.0000 nb         1 P66      -0.390000
      2 N3           2.1100    -0.0000     3.4560 na         1 P66       0.634800
      3 C4           1.7720     0.0000     4.8180 ca         1 P66      -0.204200
      4 C5           0.8470    -0.9140     5.3060 ca         1 P66       0.148400
      5 C6           2.3660     0.9120     5.6820 ca         1 P66       0.148400
      6 C7           1.3230     0.0000     0.0000 ca         1 P66       0.529200
      7 C8           0.5150    -0.9100     6.6490 ca         1 P66      -0.135500
      8 C10          2.0300     0.9090     7.0250 ca         1 P66      -0.135500
      9 C13          0.0640     0.6570    -2.4300 ca         1 P66      -0.067000
     10 C15          0.0110     0.3950    -4.8310 ca         1 P66      -0.104000
     11 C17          1.9540    -0.2670    -3.5950 ca         1 P66      -0.065600
     12 C20         -4.5880     2.8160    -6.0210 cx         1 P66      -0.094900
     13 C21         -5.1210     1.4230    -5.6820 cx         1 P66      -0.094900
     14 C19         -4.0850     2.0860    -4.7730 cx         1 P66      -0.022300
     15 N5          -2.6270     1.4800    -4.8490 ns         1 P66      -0.186900
     16 O1          -2.5170     1.6950    -2.6410 o          1 P66      -0.633100
     17 C14         -0.6110     0.7920    -3.6440 ca         1 P66      -0.126600
     18 C16          1.2870    -0.1270    -4.8000 ca         1 P66      -0.083000
     19 Cl1          3.5600    -0.9240    -3.5660 cl         1 P66      -0.028400
     20 C12          1.3450     0.1310    -2.4090 ca         1 P66      -0.007400
     21 N4           2.0280     0.0000    -1.1960 nu         1 P66      -0.275300
     22 N6          -0.6950     0.0000     1.0770 nb         1 P66      -0.195000
     23 C11         -0.1580     0.0010     2.2790 ca         1 P66       0.303200
     24 C1           1.2300     0.0000     2.4110 ca         1 P66      -0.246500
     25 C2           2.0050     0.0000     1.2310 ca         1 P66      -0.420200
     26 C3           3.3580    -0.0000     1.6280 cc         1 P66       0.470800
     27 N2           3.4100    -0.0010     2.9320 nd         1 P66      -0.634100
     28 F1           0.2690    -1.8050     4.4690 f          1 P66      -0.111400
     29 C9           1.1040     0.0020     7.5050 ca         1 P66      -0.036000
     30 F2           3.2720     1.7990     5.2140 f          1 P66      -0.111400
     31 H8          -0.2080    -1.6210     7.0300 ha         1 P66       0.129500
     32 H10          2.4900     1.6210     7.6990 ha         1 P66       0.129500
     33 H13         -0.4120     0.9660    -1.5070 ha         1 P66       0.195000
     34 H15         -0.5090     0.5010    -5.7750 ha         1 P66       0.103000
     35 H20A        -3.8910     2.8610    -6.8490 hc         1 P66       0.048200
     36 H21         -6.1320     1.3910    -5.2940 hc         1 P66       0.048200
     37 H21A        -4.7500     0.6170    -6.3040 hc         1 P66       0.048200
     38 H19         -4.4790     2.4640    -3.8380 h1         1 P66       0.099700
     39 HN5         -2.2260     1.2520    -5.7360 hn         1 P66       0.183500
     40 H16          1.7660    -0.4340    -5.7210 ha         1 P66       0.115000
     41 HN4          3.0270    -0.0620    -1.1880 hn         1 P66       0.293800
     42 H11         -0.7900     0.0010     3.1590 h4         1 P66      -0.000900
     43 H3           4.2120    -0.0000     0.9620 h4         1 P66       0.013800
     44 H9           0.8420     0.0030     8.5560 ha         1 P66       0.115000
     45 C18         -1.9780     1.3520    -3.6750 c          1 P66       0.602700
     46 H20         -5.2720     3.6360    -5.8390 hc         1 P66       0.048200
@<TRIPOS>BOND
     1     1     6 ar  
     2     1    22 ar  
     3     2     3 1   
     4     2    24 1   
     5     2    27 1   
     6     3     4 ar  
     7     3     5 ar  
     8     4     7 ar  
     9     4    28 1   
    10     5     8 ar  
    11     5    30 1   
    12     6    21 1   
    13     6    25 ar  
    14     7    29 ar  
    15     7    31 1   
    16     8    29 ar  
    17     8    32 1   
    18     9    17 ar  
    19     9    20 ar  
    20     9    33 1   
    21    10    17 ar  
    22    10    18 ar  
    23    10    34 1   
    24    11    18 ar  
    25    11    19 1   
    26    11    20 ar  
    27    12    13 1   
    28    12    14 1   
    29    12    35 1   
    30    12    46 1   
    31    13    14 1   
    32    13    36 1   
    33    13    37 1   
    34    14    15 1   
    35    14    38 1   
    36    15    39 1   
    37    15    45 1   
    38    16    45 2   
    39    17    45 1   
    40    18    40 1   
    41    20    21 1   
    42    21    41 1   
    43    22    23 ar  
    44    23    24 ar  
    45    23    42 1   
    46    24    25 ar  
    47    25    26 1   
    48    26    27 2   
    49    26    43 1   
    50    29    44 1   
@<TRIPOS>SUBSTRUCTURE
     1 P66         1 TEMP              0 ****  ****    0 ROOT
