@<TRIPOS>MOLECULE
molecule
   46    50     1     0     0
SMALL
bcc


@<TRIPOS>ATOM
      1 N1           0.0000     0.0000     0.0000 nb         1 P66      -0.415000
      2 N3           2.1100    -0.0000     3.4560 na         1 P66       0.165800
      3 C4           1.7720     0.0000     4.8180 ca         1 P66      -0.050200
      4 C5           0.8470    -0.9140     5.3060 ca         1 P66       0.164400
      5 C6           2.3660     0.9120     5.6820 ca         1 P66       0.164400
      6 C7           1.3230     0.0000     0.0000 ca         1 P66       0.689200
      7 C8           0.5150    -0.9100     6.6490 ca         1 P66      -0.173000
      8 C10          2.0300     0.9090     7.0250 ca         1 P66      -0.173000
      9 C13          0.0640     0.6570    -2.4300 ca         1 P66      -0.081000
     10 C15          0.0110     0.3950    -4.8310 ca         1 P66      -0.128000
     11 C17          1.9540    -0.2670    -3.5950 ca         1 P66      -0.003600
     12 C20         -4.5880     2.8160    -6.0210 cx         1 P66      -0.155400
     13 C21         -5.1210     1.4230    -5.6820 cx         1 P66      -0.155400
     14 C19         -4.0850     2.0860    -4.7730 cx         1 P66       0.069700
     15 N5          -2.6270     1.4800    -4.8490 ns         1 P66      -0.575900
     16 O1          -2.5170     1.6950    -2.6410 o          1 P66      -0.595100
     17 C14         -0.6110     0.7920    -3.6440 ca         1 P66      -0.121600
     18 C16          1.2870    -0.1270    -4.8000 ca         1 P66      -0.108000
     19 Cl1          3.5600    -0.9240    -3.5660 cl         1 P66      -0.112400
     20 C12          1.3450     0.1310    -2.4090 ca         1 P66       0.156600
     21 N4           2.0280     0.0000    -1.1960 nu         1 P66      -0.750300
     22 N6          -0.6950     0.0000     1.0770 nb         1 P66      -0.239000
     23 C11         -0.1580     0.0010     2.2790 ca         1 P66       0.303200
     24 C1           1.2300     0.0000     2.4110 ca         1 P66      -0.077500
     25 C2           2.0050     0.0000     1.2310 ca         1 P66      -0.395200
     26 C3           3.3580    -0.0000     1.6280 cc         1 P66       0.401800
     27 N2           3.4100    -0.0010     2.9320 nd         1 P66      -0.482100
     28 F1           0.2690    -1.8050     4.4690 f          1 P66      -0.115900
     29 C9           1.1040     0.0020     7.5050 ca         1 P66      -0.074000
     30 F2           3.2720     1.7990     5.2140 f          1 P66      -0.115900
     31 H8          -0.2080    -1.6210     7.0300 ha         1 P66       0.159500
     32 H10          2.4900     1.6210     7.6990 ha         1 P66       0.159500
     33 H13         -0.4120     0.9660    -1.5070 ha         1 P66       0.218000
     34 H15         -0.5090     0.5010    -5.7750 ha         1 P66       0.129000
     35 H20A        -3.8910     2.8610    -6.8490 hc         1 P66       0.078700
     36 H21         -6.1320     1.3910    -5.2940 hc         1 P66       0.078700
     37 H21A        -4.7500     0.6170    -6.3040 hc         1 P66       0.078700
     38 H19         -4.4790     2.4640    -3.8380 h1         1 P66       0.131700
     39 HN5         -2.2260     1.2520    -5.7360 hn         1 P66       0.322500
     40 H16          1.7660    -0.4340    -5.7210 ha         1 P66       0.147000
     41 HN4          3.0270    -0.0620    -1.1880 hn         1 P66       0.465800
     42 H11         -0.7900     0.0010     3.1590 h4         1 P66       0.039100
     43 H3           4.2120    -0.0000     0.9620 h4         1 P66       0.064800
     44 H9           0.8420     0.0030     8.5560 ha         1 P66       0.150000
     45 C18         -1.9780     1.3520    -3.6750 c          1 P66       0.680700
     46 H20         -5.2720     3.6360    -5.8390 hc         1 P66       0.078700
@<TRIPOS>BOND
     1     6     1 ar
     2     1    22 ar
     3    27     2 1
     4     2    24 1
     5     2     3 1
     6     4     3 ar
     7     3     5 ar
     8    28     4 1
     9     4     7 ar
    10     5     8 ar
    11     5    30 1
    12    21     6 1
    13     6    25 ar
    14     7    29 ar
    15     7    31 1
    16    29     8 ar
    17     8    32 1
    18    17     9 ar
    19     9    20 ar
    20     9    33 1
    21    17    10 ar
    22    10    18 ar
    23    10    34 1
    24    20    11 ar
    25    18    11 ar
    26    11    19 1
    27    12    13 1
    28    12    14 1
    29    12    46 1
    30    12    35 1
    31    13    14 1
    32    13    36 1
    33    13    37 1
    34    14    15 1
    35    14    38 1
    36    15    45 1
    37    15    39 1
    38    16    45 2
    39    45    17 1
    40    18    40 1
    41    20    21 1
    42    21    41 1
    43    22    23 ar
    44    24    23 ar
    45    23    42 1
    46    25    24 ar
    47    26    25 1
    48    26    27 2
    49    26    43 1
    50    29    44 1
@<TRIPOS>SUBSTRUCTURE
     1 P66         1 TEMP              0 ****  ****    0 ROOT
