@<TRIPOS>MOLECULE
P68
   44    45     1     0     0
SMALL
bcc


@<TRIPOS>ATOM
      1 Br1          0.0000     0.0000     0.0000 br         1 P68      -0.138100
      2 C8           1.8910     0.0000     0.0000 ca         1 P68       0.018100
      3 C7           2.5810     0.0000     1.1990 ca         1 P68      -0.063000
      4 C6           3.9630    -0.0000     1.2020 ca         1 P68      -0.119000
      5 C9           2.5810    -0.0050    -1.1980 ca         1 P68      -0.063000
      6 C10          3.9630    -0.0070    -1.2020 ca         1 P68      -0.119000
      7 C5           4.6580     0.0000     0.0000 ca         1 P68      -0.060400
      8 N2           6.0580    -0.0010     0.0000 ns         1 P68      -0.055100
      9 C4           6.7330     0.6330    -0.9790 c          1 P68       0.572100
     10 O            6.1280     1.2860    -1.8090 o          1 P68      -0.696100
     11 N1           8.0760     0.5450    -1.0370 ns         1 P68      -0.220900
     12 C1           8.8090     1.2350    -2.1020 c3         1 P68       0.092700
     13 C2           8.3660     0.6930    -3.4620 c3         1 P68      -0.026600
     14 C3           8.5170     2.7360    -2.0320 c3         1 P68      -0.026600
     15 C12         10.2870     1.0030    -1.9260 ca         1 P68      -0.103300
     16 C17         10.7930     0.7030    -0.6770 ca         1 P68      -0.082000
     17 C16         12.1630     0.4870    -0.5170 ca         1 P68      -0.126900
     18 C18         12.7110     0.1650     0.8160 ce         1 P68       0.416900
     19 N4          11.9220     0.0820     1.8370 n2         1 P68      -0.415200
     20 O2          12.4480    -0.2270     3.1150 oh         1 P68      -0.368500
     21 C19         14.1910    -0.0670     0.9860 c3         1 P68      -0.058400
     22 C15         13.0120     0.5770    -1.6210 ca         1 P68      -0.088000
     23 C14         12.4930     0.8770    -2.8630 ca         1 P68      -0.099000
     24 C13         11.1330     1.0850    -3.0170 ca         1 P68      -0.082000
     25 H1           2.0380    -0.0000     2.1360 ha         1 P68       0.116000
     26 H2           4.5030     0.0020     2.1410 ha         1 P68       0.127000
     27 H3           2.0380    -0.0100    -2.1350 ha         1 P68       0.116000
     28 H4           4.5030    -0.0080    -2.1410 ha         1 P68       0.127000
     29 H5           6.5580    -0.4680     0.7300 hn         1 P68       0.162500
     30 H6           8.5680    -0.0280    -0.3810 hn         1 P68       0.182500
     31 H7           8.6910    -0.3350    -3.5640 hc         1 P68       0.022533
     32 H8           7.2860     0.7390    -3.5350 hc         1 P68       0.022533
     33 H9           8.8060     1.2910    -4.2510 hc         1 P68       0.022533
     34 H10          8.2940     3.0140    -1.0090 hc         1 P68       0.022533
     35 H11          9.3820     3.2890    -2.3760 hc         1 P68       0.022533
     36 H12          7.6660     2.9680    -2.6620 hc         1 P68       0.022533
     37 H13         10.1420     0.7180     0.1880 ha         1 P68       0.126000
     38 H14         11.7470    -0.2570     3.7450 ho         1 P68       0.415000
     39 H15         14.7320     0.8240     0.6910 hc         1 P68       0.023033
     40 H16         14.5000    -0.8990     0.3660 hc         1 P68       0.023033
     41 H17         14.4040    -0.2910     2.0250 hc         1 P68       0.023033
     42 H18         14.0770     0.4120    -1.5030 ha         1 P68       0.111000
     43 H19         13.1510     0.9450    -3.7220 ha         1 P68       0.106000
     44 H20         10.7310     1.3210    -3.9950 ha         1 P68       0.118000
@<TRIPOS>BOND
     1     1     2 1   
     2     2     3 ar  
     3     2     5 ar  
     4     3     4 ar  
     5     3    25 1   
     6     4     7 ar  
     7     4    26 1   
     8     5     6 ar  
     9     5    27 1   
    10     6     7 ar  
    11     6    28 1   
    12     7     8 1   
    13     8     9 1   
    14     8    29 1   
    15     9    10 2   
    16     9    11 1   
    17    11    12 1   
    18    11    30 1   
    19    12    13 1   
    20    12    14 1   
    21    12    15 1   
    22    13    31 1   
    23    13    32 1   
    24    13    33 1   
    25    14    34 1   
    26    14    35 1   
    27    14    36 1   
    28    15    16 ar  
    29    15    24 ar  
    30    16    17 ar  
    31    16    37 1   
    32    17    18 1   
    33    17    22 ar  
    34    18    19 2   
    35    18    21 1   
    36    19    20 1   
    37    20    38 1   
    38    21    39 1   
    39    21    40 1   
    40    21    41 1   
    41    22    23 ar  
    42    22    42 1   
    43    23    24 ar  
    44    23    43 1   
    45    24    44 1   
@<TRIPOS>SUBSTRUCTURE
     1 P68         1 TEMP              0 ****  ****    0 ROOT
