@<TRIPOS>MOLECULE
molecule
   44    45     1     0     0
SMALL
bcc


@<TRIPOS>ATOM
      1 Br1          0.0000     0.0000     0.0000 br         1 P68      -0.101100
      2 C8           1.8910     0.0000     0.0000 ca         1 P68      -0.039900
      3 C7           2.5810     0.0000     1.1990 ca         1 P68      -0.084500
      4 C6           3.9630    -0.0000     1.2020 ca         1 P68      -0.148500
      5 C9           2.5810    -0.0050    -1.1980 ca         1 P68      -0.084500
      6 C10          3.9630    -0.0070    -1.2020 ca         1 P68      -0.148500
      7 C5           4.6580     0.0000     0.0000 ca         1 P68       0.090600
      8 N2           6.0580    -0.0010     0.0000 ns         1 P68      -0.493100
      9 C4           6.7330     0.6330    -0.9790 c          1 P68       0.784100
     10 O            6.1280     1.2860    -1.8090 o          1 P68      -0.649100
     11 N1           8.0760     0.5450    -1.0370 ns         1 P68      -0.595900
     12 C1           8.8090     1.2350    -2.1020 c3         1 P68       0.191700
     13 C2           8.3660     0.6930    -3.4620 c3         1 P68      -0.101600
     14 C3           8.5170     2.7360    -2.0320 c3         1 P68      -0.101600
     15 C12         10.2870     1.0030    -1.9260 ca         1 P68      -0.094300
     16 C17         10.7930     0.7030    -0.6770 ca         1 P68      -0.099000
     17 C16         12.1630     0.4870    -0.5170 ca         1 P68      -0.122900
     18 C18         12.7110     0.1650     0.8160 ce         1 P68       0.436900
     19 N4          11.9220     0.0820     1.8370 n2         1 P68      -0.455200
     20 O2          12.4480    -0.2270     3.1150 oh         1 P68      -0.387500
     21 C19         14.1910    -0.0670     0.9860 c3         1 P68      -0.168400
     22 C15         13.0120     0.5770    -1.6210 ca         1 P68      -0.106000
     23 C14         12.4930     0.8770    -2.8630 ca         1 P68      -0.128000
     24 C13         11.1330     1.0850    -3.0170 ca         1 P68      -0.105000
     25 H1           2.0380    -0.0000     2.1360 ha         1 P68       0.145500
     26 H2           4.5030     0.0020     2.1410 ha         1 P68       0.151500
     27 H3           2.0380    -0.0100    -2.1350 ha         1 P68       0.145500
     28 H4           4.5030    -0.0080    -2.1410 ha         1 P68       0.151500
     29 H5           6.5580    -0.4650     0.7330 hn         1 P68       0.320500
     30 H6           8.5690    -0.0250    -0.3790 hn         1 P68       0.316500
     31 H7           8.6910    -0.3350    -3.5650 hc         1 P68       0.051367
     32 H8           8.8060     1.2910    -4.2510 hc         1 P68       0.051367
     33 H9           7.2860     0.7380    -3.5340 hc         1 P68       0.051367
     34 H10          8.2960     3.0140    -1.0090 hc         1 P68       0.051367
     35 H11          7.6650     2.9680    -2.6610 hc         1 P68       0.051367
     36 H12          9.3820     3.2890    -2.3780 hc         1 P68       0.051367
     37 H13         10.1420     0.7160     0.1880 ha         1 P68       0.149000
     38 H14         11.7470    -0.2600     3.7440 ho         1 P68       0.428000
     39 H15         14.5000    -0.9000     0.3660 hc         1 P68       0.059367
     40 H16         14.7320     0.8240     0.6910 hc         1 P68       0.059367
     41 H17         14.4040    -0.2910     2.0250 hc         1 P68       0.059367
     42 H18         14.0770     0.4120    -1.5030 ha         1 P68       0.138000
     43 H19         13.1510     0.9450    -3.7220 ha         1 P68       0.137000
     44 H20         10.7310     1.3210    -3.9950 ha         1 P68       0.141000
@<TRIPOS>BOND
     1    13    12 1
     2    12    15 1
     3    12    14 1
     4    12    11 1
     5    24    15 ar
     6    24    23 ar
     7    15    16 ar
     8    23    22 ar
     9    11     9 1
    10    16    17 ar
    11    22    17 ar
    12    17    18 1
    13    21    18 1
    14    18    19 2
    15     9     8 1
    16     9    10 2
    17    19    20 1
    18     8     7 1
    19     7     6 ar
    20     7     4 ar
    21     6     5 ar
    22     4     3 ar
    23     5     2 ar
    24     3     2 ar
    25     2     1 1
    26     3    25 1
    27     4    26 1
    28     5    27 1
    29     6    28 1
    30     8    29 1
    31    11    30 1
    32    13    31 1
    33    13    32 1
    34    13    33 1
    35    14    34 1
    36    14    35 1
    37    14    36 1
    38    16    37 1
    39    20    38 1
    40    21    39 1
    41    21    40 1
    42    21    41 1
    43    22    42 1
    44    23    43 1
    45    24    44 1
@<TRIPOS>SUBSTRUCTURE
     1 P68         1 TEMP              0 ****  ****    0 ROOT
