@<TRIPOS>MOLECULE
molecule
   39    42     1     0     0
SMALL
bcc


@<TRIPOS>ATOM
      1 FAX          0.0000     0.0000     0.0000 f          1 P69      -0.124900
      2 CAS          1.3510     0.0000     0.0000 ca         1 P69       0.168900
      3 CAT          2.0440     0.0000     1.2000 ca         1 P69      -0.177000
      4 CAU          3.4250    -0.0010     1.1990 ca         1 P69      -0.094000
      5 CAV          4.1170     0.0000     0.0020 ca         1 P69      -0.149000
      6 CAW          3.4270     0.0010    -1.1960 ca         1 P69      -0.088000
      7 CAL          2.0450    -0.0050    -1.1980 ca         1 P69      -0.156300
      8 CAH          1.2930    -0.0110    -2.5040 c3         1 P69       0.427200
      9 NAG          0.0570     0.7660    -2.3560 nu         1 P69      -0.719600
     10 CAE          0.1350     2.1550    -2.3640 ca         1 P69       0.135600
     11 CAD         -0.7810     2.9400    -1.6840 ca         1 P69      -0.134000
     12 CAC         -0.6690     4.3160    -1.7300 ca         1 P69      -0.092000
     13 CAB          0.3520     4.9170    -2.4520 ca         1 P69      -0.156000
     14 CAA          1.2740     4.1490    -3.1310 ca         1 P69      -0.051000
     15 CAF          1.1760     2.7600    -3.0900 ca         1 P69      -0.190600
     16 CAJ          2.1510     1.8950    -3.7780 c          1 P69       0.724100
     17 OAM          2.9630     2.3770    -4.5450 o          1 P69      -0.623500
     18 NAI          2.1350     0.5670    -3.5500 n          1 P69      -0.426000
     19 CAK          2.9390    -0.2730    -4.3290 ca         1 P69       0.050600
     20 CAN          2.3640    -1.3040    -5.0610 ca         1 P69      -0.130500
     21 CAO          3.1610    -2.1300    -5.8280 ca         1 P69      -0.117000
     22 CAP          4.5280    -1.9340    -5.8670 ca         1 P69      -0.131000
     23 CAQ          5.1040    -0.9100    -5.1390 ca         1 P69      -0.117000
     24 CAR          4.3120    -0.0750    -4.3740 ca         1 P69      -0.130500
     25 H1           1.5020    -0.0010     2.1380 ha         1 P69       0.145000
     26 H2           3.9670    -0.0010     2.1370 ha         1 P69       0.136000
     27 H3           5.2000     0.0020     0.0030 ha         1 P69       0.136000
     28 H4           3.9700    -0.0010    -2.1330 ha         1 P69       0.152000
     29 H5           1.0410    -1.0300    -2.7720 h2         1 P69       0.088700
     30 H6          -0.6100     0.4650    -3.0380 hn         1 P69       0.391800
     31 H7          -1.5810     2.4770    -1.1190 ha         1 P69       0.148000
     32 H8          -1.3860     4.9320    -1.2010 ha         1 P69       0.135000
     33 H9           0.4280     5.9970    -2.4790 ha         1 P69       0.136000
     34 H10          2.0700     4.6230    -3.6930 ha         1 P69       0.155000
     35 H11          1.2930    -1.4580    -5.0300 ha         1 P69       0.139500
     36 H12          2.7130    -2.9340    -6.4000 ha         1 P69       0.133500
     37 H13          5.1510    -2.5850    -6.4680 ha         1 P69       0.131000
     38 H14          6.1760    -0.7570    -5.1730 ha         1 P69       0.133500
     39 H15          4.7640     0.7280    -3.8030 ha         1 P69       0.139500
@<TRIPOS>BOND
     1     1     2 1
     2     3     2 ar
     3     3     4 ar
     4     2     7 ar
     5     4     5 ar
     6     7     8 1
     7     7     6 ar
     8     5     6 ar
     9     9     8 1
    10     9    10 1
    11    11    12 ar
    12    11    10 ar
    13     8    18 1
    14    12    13 ar
    15    10    15 ar
    16    18    16 1
    17    18    19 1
    18    20    19 ar
    19    20    21 ar
    20    15    14 ar
    21    15    16 1
    22    13    14 ar
    23    16    17 2
    24    19    24 ar
    25    21    22 ar
    26    24    23 ar
    27    22    23 ar
    28     3    25 1
    29     4    26 1
    30     5    27 1
    31     6    28 1
    32     8    29 1
    33     9    30 1
    34    11    31 1
    35    12    32 1
    36    13    33 1
    37    14    34 1
    38    20    35 1
    39    21    36 1
    40    22    37 1
    41    23    38 1
    42    24    39 1
@<TRIPOS>SUBSTRUCTURE
     1 P69         1 TEMP              0 ****  ****    0 ROOT
