@<TRIPOS>MOLECULE
P69
   39    42     1     0     0
SMALL
bcc


@<TRIPOS>ATOM
      1 FAX          0.0000     0.0000     0.0000 f          1 P69      -0.123900
      2 CAS          1.3510     0.0000     0.0000 ca         1 P69       0.143900
      3 CAT          2.0440     0.0000     1.2000 ca         1 P69      -0.138000
      4 CAU          3.4250    -0.0010     1.1990 ca         1 P69      -0.068000
      5 CAV          4.1170     0.0000     0.0020 ca         1 P69      -0.111000
      6 CAW          3.4270     0.0010    -1.1960 ca         1 P69      -0.085000
      7 CAL          2.0450    -0.0050    -1.1980 ca         1 P69      -0.158300
      8 CAH          1.2930    -0.0110    -2.5040 c3         1 P69       0.262200
      9 NAG          0.0570     0.7660    -2.3560 nu         1 P69      -0.415600
     10 CAE          0.1350     2.1550    -2.3640 ca         1 P69       0.037600
     11 CAD         -0.7810     2.9400    -1.6840 ca         1 P69      -0.107000
     12 CAC         -0.6690     4.3160    -1.7300 ca         1 P69      -0.062000
     13 CAB          0.3520     4.9170    -2.4520 ca         1 P69      -0.131000
     14 CAA          1.2740     4.1490    -3.1310 ca         1 P69      -0.014000
     15 CAF          1.1760     2.7600    -3.0900 ca         1 P69      -0.202600
     16 CAJ          2.1510     1.8950    -3.7780 c          1 P69       0.654100
     17 OAM          2.9630     2.3770    -4.5450 o          1 P69      -0.663500
     18 NAI          2.1350     0.5670    -3.5500 n          1 P69      -0.056000
     19 CAK          2.9390    -0.2730    -4.3290 ca         1 P69      -0.074400
     20 CAN          2.3640    -1.3040    -5.0610 ca         1 P69      -0.101000
     21 CAO          3.1610    -2.1300    -5.8280 ca         1 P69      -0.087500
     22 CAP          4.5280    -1.9340    -5.8670 ca         1 P69      -0.099000
     23 CAQ          5.1040    -0.9100    -5.1390 ca         1 P69      -0.087500
     24 CAR          4.3120    -0.0750    -4.3740 ca         1 P69      -0.101000
     25 H1           1.5020    -0.0010     2.1380 ha         1 P69       0.120000
     26 H2           3.9670    -0.0010     2.1370 ha         1 P69       0.106000
     27 H3           5.2000     0.0020     0.0030 ha         1 P69       0.108000
     28 H4           3.9700    -0.0010    -2.1330 ha         1 P69       0.132000
     29 H5           1.0410    -1.0300    -2.7720 h2         1 P69       0.055700
     30 H6          -0.6100     0.4650    -3.0380 hn         1 P69       0.267800
     31 H7          -1.5810     2.4770    -1.1190 ha         1 P69       0.120000
     32 H8          -1.3860     4.9320    -1.2010 ha         1 P69       0.103000
     33 H9           0.4280     5.9970    -2.4790 ha         1 P69       0.107000
     34 H10          2.0700     4.6230    -3.6930 ha         1 P69       0.124000
     35 H11          1.2930    -1.4580    -5.0300 ha         1 P69       0.115000
     36 H12          2.7130    -2.9340    -6.4000 ha         1 P69       0.105000
     37 H13          5.1510    -2.5850    -6.4680 ha         1 P69       0.104000
     38 H14          6.1760    -0.7570    -5.1730 ha         1 P69       0.105000
     39 H15          4.7640     0.7280    -3.8030 ha         1 P69       0.115000
@<TRIPOS>BOND
     1     1     2 1   
     2     2     3 ar  
     3     2     7 ar  
     4     3     4 ar  
     5     3    25 1   
     6     4     5 ar  
     7     4    26 1   
     8     5     6 ar  
     9     5    27 1   
    10     6     7 ar  
    11     6    28 1   
    12     7     8 1   
    13     8     9 1   
    14     8    18 1   
    15     8    29 1   
    16     9    10 1   
    17     9    30 1   
    18    10    11 ar  
    19    10    15 ar  
    20    11    12 ar  
    21    11    31 1   
    22    12    13 ar  
    23    12    32 1   
    24    13    14 ar  
    25    13    33 1   
    26    14    15 ar  
    27    14    34 1   
    28    15    16 1   
    29    16    17 2   
    30    16    18 1   
    31    18    19 1   
    32    19    20 ar  
    33    19    24 ar  
    34    20    21 ar  
    35    20    35 1   
    36    21    22 ar  
    37    21    36 1   
    38    22    23 ar  
    39    22    37 1   
    40    23    24 ar  
    41    23    38 1   
    42    24    39 1   
@<TRIPOS>SUBSTRUCTURE
     1 P69         1 TEMP              0 ****  ****    0 ROOT
