@<TRIPOS>MOLECULE
P6C
   27    28     1     0     0
SMALL
bcc


@<TRIPOS>ATOM
      1 N17          0.0000     0.0000     0.0000 nv         1 P6C      -0.641500
      2 C16          1.3800     0.0000     0.0000 ca         1 P6C       0.684900
      3 N15          2.0050     0.0000     1.1620 nb         1 P6C      -0.597000
      4 C14          3.3400    -0.0000     1.2050 ca         1 P6C       0.478000
      5 C9           4.0750    -0.0050    -0.0650 ca         1 P6C       0.081000
      6 N10          5.4010    -0.0000    -0.0510 nb         1 P6C      -0.463000
      7 C8           3.3230    -0.0000    -1.2600 ca         1 P6C       0.396300
      8 N7           2.0110    -0.0000    -1.1700 nb         1 P6C      -0.647000
      9 C5           4.0070    -0.0000    -2.6020 c3         1 P6C      -0.112000
     10 C6           3.5960    -1.2480    -3.3850 c3         1 P6C       0.012900
     11 C4           3.5960     1.2500    -3.3840 c3         1 P6C       0.012900
     12 N13          4.0220    -0.0000     2.3520 nb         1 P6C      -0.577000
     13 C12          5.3370    -0.0000     2.3230 ca         1 P6C       0.351900
     14 C11          6.0390    -0.0000     1.1070 ca         1 P6C       0.243500
     15 C1           7.5180     0.0000     1.1230 c          1 P6C       0.859100
     16 O2           8.2040     0.0000    -0.0360 o          1 P6C      -0.858800
     17 O3           8.1150     0.0000     2.1800 o          1 P6C      -0.858800
     18 H171        -0.5000     0.8670    -0.0060 hn         1 P6C       0.268800
     19 H172        -0.5000    -0.8670    -0.0070 hn         1 P6C       0.268800
     20 H5           5.0810    -0.0000    -2.4600 hc         1 P6C       0.077700
     21 H61          4.2190    -1.3440    -4.2660 hc         1 P6C       0.001367
     22 H62          3.7180    -2.1240    -2.7590 hc         1 P6C       0.001367
     23 H63          2.5580    -1.1610    -3.6840 hc         1 P6C       0.001367
     24 H41          4.2190     1.3470    -4.2640 hc         1 P6C       0.001367
     25 H42          2.5590     1.1640    -3.6830 hc         1 P6C       0.001367
     26 H43          3.7190     2.1250    -2.7560 hc         1 P6C       0.001367
     27 H12          5.8890    -0.0000     3.2550 h4         1 P6C       0.011100
@<TRIPOS>BOND
     1     1     2 1   
     2     1    18 1   
     3     1    19 1   
     4     2     3 ar  
     5     2     8 ar  
     6     3     4 ar  
     7     4     5 ar  
     8     4    12 ar  
     9     5     6 ar  
    10     5     7 ar  
    11     6    14 ar  
    12     7     8 ar  
    13     7     9 1   
    14     9    10 1   
    15     9    11 1   
    16     9    20 1   
    17    10    21 1   
    18    10    22 1   
    19    10    23 1   
    20    11    24 1   
    21    11    25 1   
    22    11    26 1   
    23    12    13 ar  
    24    13    14 ar  
    25    13    27 1   
    26    14    15 1   
    27    15    16 1   
    28    15    17 1   
@<TRIPOS>SUBSTRUCTURE
     1 P6C         1 TEMP              0 ****  ****    0 ROOT
