@<TRIPOS>MOLECULE
P6F
   30    29     1     0     0
SMALL
bcc


@<TRIPOS>ATOM
      1 P1          0.8940   -0.4700    0.2080 p5        1 P6F      1.319900
      2 O1P         1.8310   -1.5750   -0.2120 o         1 P6F     -0.937500
      3 O2P         0.3540   -0.5650    1.6110 o         1 P6F     -0.937500
      4 O3P         1.3180    0.9120   -0.2200 o         1 P6F     -0.937500
      5 O1         -0.5090   -0.7580   -0.7860 os        1 P6F     -0.554200
      6 C1         -0.2790   -1.3030   -2.0180 c3        1 P6F      0.140400
      7 C2         -1.2640   -2.3950   -2.3950 c         1 P6F      0.530100
      8 O2         -2.1040   -2.9140   -1.6510 o         1 P6F     -0.578100
      9 C3         -1.1350   -2.9570   -3.8240 c3        1 P6F      0.028100
     10 O3         -1.3210   -4.3660   -3.7770 oh        1 P6F     -0.615800
     11 C4         -2.1250   -2.3340   -4.8320 c3        1 P6F      0.120100
     12 O4         -3.4260   -2.7310   -4.4050 oh        1 P6F     -0.626800
     13 C5         -1.8440   -2.8080   -6.2760 c3        1 P6F      0.083100
     14 O5         -0.5840   -2.2710   -6.6510 oh        1 P6F     -0.644800
     15 C6         -2.9550   -2.3850   -7.2760 c3        1 P6F      0.178400
     16 O6         -2.4520   -2.3600   -8.5530 os        1 P6F     -0.574200
     17 P2         -3.5270   -2.9200   -9.8090 p5        1 P6F      1.321900
     18 O4P        -4.2510   -4.0640   -9.1460 o         1 P6F     -0.936500
     19 O5P        -4.3800   -1.7080  -10.0800 o         1 P6F     -0.936500
     20 O6P        -2.5590   -3.2910  -10.9000 o         1 P6F     -0.936500
     21 H1         -0.3870   -0.5230   -2.8350 h1        1 P6F      0.027700
     22 H1A         0.7580   -1.7570   -2.0680 h1        1 P6F      0.027700
     23 H3         -0.0910   -2.8080   -4.2150 h1        1 P6F      0.094700
     24 HO3        -2.1990   -4.5000   -3.3960 ho        1 P6F      0.407000
     25 H4         -2.0510   -1.2140   -4.7780 h1        1 P6F      0.044700
     26 HO4        -4.0090   -2.6790   -5.1710 ho        1 P6F      0.407000
     27 H5         -1.7520   -3.9300   -6.2700 h1        1 P6F      0.041700
     28 HO5        -0.6370   -2.0970   -7.6050 ho        1 P6F      0.437000
     29 H6         -3.8180   -3.1070   -7.2070 h1        1 P6F      0.003200
     30 H6A        -3.2990   -1.3520   -6.9620 h1        1 P6F      0.003200
@<TRIPOS>BOND
     1    1    2 1   
     2    1    3 1   
     3    1    4 1   
     4    1    5 1   
     5    5    6 1   
     6    6    7 1   
     7    6   21 1   
     8    6   22 1   
     9    7    8 2   
    10    7    9 1   
    11    9   10 1   
    12    9   11 1   
    13    9   23 1   
    14   10   24 1   
    15   11   12 1   
    16   11   13 1   
    17   11   25 1   
    18   12   26 1   
    19   13   14 1   
    20   13   15 1   
    21   13   27 1   
    22   14   28 1   
    23   15   16 1   
    24   15   29 1   
    25   15   30 1   
    26   16   17 1   
    27   17   18 1   
    28   17   19 1   
    29   17   20 1   
@<TRIPOS>SUBSTRUCTURE
     1 P6F         1 TEMP              0 ****  ****    0 ROOT
