@<TRIPOS>MOLECULE
molecule
   30    29     1     0     0
SMALL
bcc


@<TRIPOS>ATOM
      1 P1           0.0000     0.0000     0.0000 p5         1 P6F       1.198900
      2 O1P          1.6100     0.0000     0.0000 o          1 P6F      -0.920167
      3 O2P         -0.5380     0.0000     1.5170 o          1 P6F      -0.920167
      4 O3P         -0.4920     1.2090    -0.6980 o          1 P6F      -0.920167
      5 O1          -0.5370    -1.3130    -0.7600 os         1 P6F      -0.563200
      6 C1          -0.3180    -1.5520    -2.1520 c3         1 P6F       0.130400
      7 C2          -0.9480    -2.8650    -2.5420 c          1 P6F       0.522100
      8 O2          -1.5240    -3.5280    -1.7140 o          1 P6F      -0.507100
      9 C3          -0.8580    -3.3500    -3.9660 c3         1 P6F       0.030100
     10 O3          -1.2040    -4.7350    -4.0190 oh         1 P6F      -0.582800
     11 C4          -1.8250    -2.5480    -4.8390 c3         1 P6F       0.155100
     12 O4          -3.1430    -2.6310    -4.2920 oh         1 P6F      -0.591800
     13 C5          -1.8270    -3.1220    -6.2580 c3         1 P6F       0.115100
     14 O5          -0.5090    -3.0400    -6.8060 oh         1 P6F      -0.618800
     15 C6          -2.7930    -2.3210    -7.1320 c3         1 P6F       0.204400
     16 O6          -2.8830    -2.9270    -8.4230 os         1 P6F      -0.591200
     17 P2          -3.8130    -2.3460    -9.6010 p5         1 P6F       1.205900
     18 O4P         -5.2060    -2.2250    -9.1160 o          1 P6F      -0.925167
     19 O5P         -3.2720    -0.8960   -10.0470 o          1 P6F      -0.925167
     20 O6P         -3.7690    -3.3460   -10.8630 o          1 P6F      -0.925167
     21 H1           0.7460    -1.5900    -2.3490 h1         1 P6F       0.032200
     22 H1A         -0.7640    -0.7520    -2.7300 h1         1 P6F       0.032200
     23 H3           0.1530    -3.2150    -4.3310 h1         1 P6F       0.047700
     24 HO3         -0.4180    -5.2560    -3.9970 ho         1 P6F       0.369000
     25 H4          -1.5110    -1.5120    -4.8690 h1         1 P6F       0.058700
     26 HO4         -3.5320    -1.7720    -4.2790 ho         1 P6F       0.403000
     27 H5          -2.1410    -4.1580    -6.2280 h1         1 P6F       0.048700
     28 HO5         -0.3040    -3.8450    -7.2520 ho         1 P6F       0.390000
     29 H6          -2.4310    -1.3050    -7.2340 h1         1 P6F       0.023200
     30 H6A         -3.7730    -2.3100    -6.6700 h1         1 P6F       0.023200
@<TRIPOS>BOND
     1     4     1 1
     2     2     1 1
     3     1     5 1
     4     1     3 1
     5     6     5 1
     6     6     7 1
     7     6    21 1
     8     6    22 1
     9     9     7 1
    10     7     8 2
    11    11     9 1
    12     9    10 1
    13     9    23 1
    14    10    24 1
    15    13    11 1
    16    11    12 1
    17    11    25 1
    18    12    26 1
    19    14    13 1
    20    15    13 1
    21    13    27 1
    22    14    28 1
    23    16    15 1
    24    15    29 1
    25    15    30 1
    26    17    16 1
    27    18    17 1
    28    20    17 1
    29    17    19 1
@<TRIPOS>SUBSTRUCTURE
     1 P6F         1 TEMP              0 ****  ****    0 ROOT
