@<TRIPOS>MOLECULE
P6G
   45    44     1     0     0
SMALL
bcc


@<TRIPOS>ATOM
      1 O1         -1.0940    1.2180    0.4470 oh        1 P6G     -0.599800
      2 C2         -0.6710    0.1500   -0.3740 c3        1 P6G      0.131400
      3 C3          0.8230   -0.1170   -0.2230 c3        1 P6G      0.087400
      4 O4          1.0090   -0.5860    1.1110 os        1 P6G     -0.438600
      5 C5          2.3810   -0.8290    1.4150 c3        1 P6G      0.129400
      6 C6          2.4110   -1.4970    2.7850 c3        1 P6G      0.127400
      7 O7          2.7250   -2.8690    2.5600 os        1 P6G     -0.428600
      8 C8          2.6330   -3.6480    3.7510 c3        1 P6G      0.127400
      9 C9          3.1670   -5.0340    3.4060 c3        1 P6G      0.127400
     10 O10         4.4540   -5.1340    4.0120 os        1 P6G     -0.429600
     11 C11         5.1380   -6.3260    3.6320 c3        1 P6G      0.127400
     12 C12         6.4040   -6.3890    4.4810 c3        1 P6G      0.127400
     13 O13         6.1830   -7.4000    5.4630 os        1 P6G     -0.428600
     14 C14         7.2290   -7.4500    6.4310 c3        1 P6G      0.127400
     15 C15         6.9530   -8.6710    7.3030 c3        1 P6G      0.129400
     16 O16         7.9150   -9.6580    6.9340 os        1 P6G     -0.438600
     17 C17         7.6640  -10.9180    7.5530 c3        1 P6G      0.087400
     18 C18         8.7960  -11.8400    7.1120 c3        1 P6G      0.131400
     19 O19        10.0410  -11.4210    7.6330 oh        1 P6G     -0.599800
     20 H1         -0.8540    0.9870    1.3540 ho        1 P6G      0.412000
     21 H21        -0.8930    0.4820   -1.4230 h1        1 P6G      0.053700
     22 H22        -1.2530   -0.7780   -0.1320 h1        1 P6G      0.053700
     23 H31         1.1600   -0.9000   -0.9520 h1        1 P6G      0.039200
     24 H32         1.4140    0.8240   -0.3790 h1        1 P6G      0.039200
     25 H51         2.9290    0.1490    1.4440 h1        1 P6G      0.045200
     26 H52         2.8390   -1.4960    0.6370 h1        1 P6G      0.045200
     27 H61         1.4150   -1.4060    3.2950 h1        1 P6G      0.043200
     28 H62         3.2070   -1.0370    3.4270 h1        1 P6G      0.043200
     29 H81         3.2400   -3.1790    4.5700 h1        1 P6G      0.044200
     30 H82         1.5580   -3.7110    4.0670 h1        1 P6G      0.044200
     31 H91         3.2510   -5.1630    2.2940 h1        1 P6G      0.044200
     32 H92         2.4980   -5.8280    3.8300 h1        1 P6G      0.044200
     33 H111        4.4890   -7.2230    3.8180 h1        1 P6G      0.044200
     34 H112        5.4020   -6.2690    2.5430 h1        1 P6G      0.044200
     35 H121        6.6000   -5.4020    4.9780 h1        1 P6G      0.044200
     36 H122        7.2850   -6.6760    3.8490 h1        1 P6G      0.044200
     37 H141        8.2250   -7.5390    5.9230 h1        1 P6G      0.043200
     38 H142        7.2030   -6.5140    7.0500 h1        1 P6G      0.043200
     39 H151        5.9140   -9.0570    7.1300 h1        1 P6G      0.045200
     40 H152        7.0870   -8.4170    8.3870 h1        1 P6G      0.045200
     41 H171        7.6600  -10.7970    8.6680 h1        1 P6G      0.039200
     42 H172        6.6730  -11.3190    7.2130 h1        1 P6G      0.039200
     43 H181        8.8410  -11.8830    5.9920 h1        1 P6G      0.053700
     44 H182        8.6340  -12.8680    7.5320 h1        1 P6G      0.053700
     45 H19        10.1750  -10.5110    7.3400 ho        1 P6G      0.412000
@<TRIPOS>BOND
     1    1    2 1   
     2    1   20 1   
     3    2    3 1   
     4    2   21 1   
     5    2   22 1   
     6    3    4 1   
     7    3   23 1   
     8    3   24 1   
     9    4    5 1   
    10    5    6 1   
    11    5   25 1   
    12    5   26 1   
    13    6    7 1   
    14    6   27 1   
    15    6   28 1   
    16    7    8 1   
    17    8    9 1   
    18    8   29 1   
    19    8   30 1   
    20    9   10 1   
    21    9   31 1   
    22    9   32 1   
    23   10   11 1   
    24   11   12 1   
    25   11   33 1   
    26   11   34 1   
    27   12   13 1   
    28   12   35 1   
    29   12   36 1   
    30   13   14 1   
    31   14   15 1   
    32   14   37 1   
    33   14   38 1   
    34   15   16 1   
    35   15   39 1   
    36   15   40 1   
    37   16   17 1   
    38   17   18 1   
    39   17   41 1   
    40   17   42 1   
    41   18   19 1   
    42   18   43 1   
    43   18   44 1   
    44   19   45 1   
@<TRIPOS>SUBSTRUCTURE
     1 P6G         1 TEMP              0 ****  ****    0 ROOT
