@<TRIPOS>MOLECULE
P6L
  125   124     1     0     0
SMALL
bcc


@<TRIPOS>ATOM
      1 C1         -1.8070   -6.2190    2.8320 c3        1 P6L      0.125400
      2 C2         -1.1210   -7.5670    3.0590 c3        1 P6L      0.104100
      3 O3          0.0140   -7.4500    3.9040 oh        1 P6L     -0.632800
      4 O4         -4.7490   -4.7910    3.3530 os        1 P6L     -0.435900
      5 C5         -4.5410   -3.6700    4.2290 c3        1 P6L      0.102100
      6 C6         -4.3710   -4.2400    5.6350 c3        1 P6L      0.143400
      7 C7         -3.3740   -2.8090    3.7190 c3        1 P6L      0.182400
      8 O8         -3.1610   -4.9840    5.7660 os        1 P6L     -0.418900
      9 O9         -2.1530   -3.4680    3.7320 os        1 P6L     -0.577200
     10 O10        -0.2790   -2.8490    2.1310 o         1 P6L     -0.828500
     11 P11        -1.4220   -3.7610    2.2710 p5        1 P6L      1.439800
     12 O12        -0.8170   -5.2460    2.6590 os        1 P6L     -0.576200
     13 O13        -2.5110   -3.9720    1.2920 o         1 P6L     -0.828500
     14 O15        -6.2100   -3.5870    2.1510 o         1 P6L     -0.581000
     15 C16        -2.1390   -4.4430    6.4990 c         1 P6L      0.665100
     16 O17        -2.3770   -3.4740    7.2260 o         1 P6L     -0.576000
     17 C18        -5.1380   -5.5600    1.1320 c3        1 P6L     -0.153400
     18 C19        -6.2820   -5.7080    0.1550 c3        1 P6L     -0.072400
     19 C20        -5.8820   -6.5910   -1.0080 c3        1 P6L     -0.078400
     20 C21        -7.0260   -6.7510   -1.9880 c3        1 P6L     -0.052200
     21 C22        -6.6690   -7.6180   -3.1350 c2        1 P6L     -0.157200
     22 C23        -7.5450   -8.0370   -4.0540 c2        1 P6L     -0.192200
     23 C24        -8.9860   -7.6920   -4.0330 c3        1 P6L     -0.046200
     24 C25        -9.7150   -8.1940   -5.2630 c3        1 P6L     -0.076400
     25 C26       -11.1820   -7.8260   -5.2170 c3        1 P6L     -0.080400
     26 C27        -0.8600   -5.2060    6.3410 c3        1 P6L     -0.126400
     27 C28         0.3300   -4.2710    6.3810 c3        1 P6L     -0.079400
     28 C29         1.6220   -5.0530    6.2890 c3        1 P6L     -0.074400
     29 C30         2.8140   -4.1250    6.2030 c3        1 P6L     -0.082400
     30 C31         4.1080   -4.9030    6.0900 c3        1 P6L     -0.075400
     31 C32         5.3190   -3.9950    6.0340 c3        1 P6L     -0.052200
     32 C33         5.6540   -3.3840    7.3420 c2        1 P6L     -0.156200
     33 C34         6.7470   -2.6460    7.5610 c2        1 P6L     -0.193200
     34 C35         7.7610   -2.3500    6.5210 c3        1 P6L     -0.046200
     35 C36         8.8480   -1.4250    7.0250 c3        1 P6L     -0.075400
     36 C37       -11.9130   -8.3270   -6.4440 c3        1 P6L     -0.078400
     37 C38         9.8670   -1.1380    5.9430 c3        1 P6L     -0.080400
     38 C39        10.9570   -0.2140    6.4440 c3        1 P6L     -0.078400
     39 C40        11.9750    0.0730    5.3620 c3        1 P6L     -0.079400
     40 C41        13.0650    0.9950    5.8630 c3        1 P6L     -0.078400
     41 C42        14.0840    1.2820    4.7810 c3        1 P6L     -0.079400
     42 C43        15.1750    2.2050    5.2810 c3        1 P6L     -0.080400
     43 C44        16.1910    2.4930    4.2070 c3        1 P6L     -0.092100
     44 C45       -13.3810   -7.9600   -6.3970 c3        1 P6L     -0.079400
     45 C46       -14.1130   -8.4620   -7.6240 c3        1 P6L     -0.078400
     46 C47       -15.5800   -8.0950   -7.5770 c3        1 P6L     -0.079400
     47 C48       -16.3130   -8.5970   -8.8030 c3        1 P6L     -0.080400
     48 C49       -17.7750   -8.2340   -8.7610 c3        1 P6L     -0.092100
     49 C50        -0.6810   -8.1840    1.7280 c3        1 P6L      0.100400
     50 O51         0.0490   -9.3810    1.9250 oh        1 P6L     -0.622800
     51 H11        -2.4630   -6.2520    1.9190 h1        1 P6L      0.056700
     52 H12        -2.4380   -5.9340    3.7220 h1        1 P6L      0.056700
     53 H2         -1.8090   -8.2720    3.6020 h1        1 P6L      0.061700
     54 HO3         0.4730   -6.6330    3.6530 ho        1 P6L      0.434000
     55 H5         -5.4690   -3.0270    4.2340 h1        1 P6L      0.061700
     56 H61        -4.4150   -3.3980    6.3750 h1        1 P6L      0.060200
     57 H62        -5.1810   -4.9900    5.8420 h1        1 P6L      0.060200
     58 H71        -3.6290   -2.4730    2.6730 h1        1 P6L      0.040200
     59 H72        -3.2980   -1.9190    4.4070 h1        1 P6L      0.040200
     60 H181       -4.2030   -5.1750    0.6170 hc        1 P6L      0.112200
     61 H182       -4.8830   -6.5440    1.6040 hc        1 P6L      0.112200
     62 H191       -7.1740   -6.1470    0.6750 hc        1 P6L      0.045200
     63 H192       -6.5830   -4.6940   -0.2200 hc        1 P6L      0.045200
     64 H201       -5.5680   -7.5980   -0.6270 hc        1 P6L      0.046200
     65 H202       -4.9960   -6.1420   -1.5300 hc        1 P6L      0.046200
     66 H211       -7.3340   -5.7390   -2.3720 hc        1 P6L      0.046700
     67 H212       -7.9210   -7.1780   -1.4560 hc        1 P6L      0.046700
     68 H22        -5.6080   -7.9100   -3.2040 ha        1 P6L      0.125000
     69 H23        -7.2150   -8.6780   -4.8870 ha        1 P6L      0.116000
     70 H241       -9.1040   -6.5760   -3.9550 hc        1 P6L      0.046700
     71 H242       -9.4600   -8.1300   -3.1110 hc        1 P6L      0.046700
     72 H251       -9.6080   -9.3080   -5.3360 hc        1 P6L      0.038700
     73 H252       -9.2450   -7.7550   -6.1830 hc        1 P6L      0.038700
     74 H261      -11.6510   -8.2620   -4.2950 hc        1 P6L      0.040200
     75 H262      -11.2880   -6.7110   -5.1450 hc        1 P6L      0.040200
     76 H271       -0.8040   -5.9580    7.1710 hc        1 P6L      0.082200
     77 H272       -0.8780   -5.7630    5.3610 hc        1 P6L      0.082200
     78 H281        0.3080   -3.6680    7.3270 hc        1 P6L      0.064700
     79 H282        0.2580   -3.5500    5.5220 hc        1 P6L      0.064700
     80 H291        1.7260   -5.7220    7.1840 hc        1 P6L      0.037200
     81 H292        1.5930   -5.7150    5.3820 hc        1 P6L      0.037200
     82 H301        2.8470   -3.4670    7.1110 hc        1 P6L      0.047700
     83 H302        2.6990   -3.4530    5.3100 hc        1 P6L      0.047700
     84 H311        4.2030   -5.6070    6.9580 hc        1 P6L      0.038200
     85 H312        4.0800   -5.5270    5.1570 hc        1 P6L      0.038200
     86 H321        5.1400   -3.1790    5.2800 hc        1 P6L      0.048200
     87 H322        6.2050   -4.5850    5.6670 hc        1 P6L      0.048200
     88 H33         4.9330   -3.5650    8.1560 ha        1 P6L      0.124000
     89 H34         6.9380   -2.2140    8.5560 ha        1 P6L      0.115000
     90 H351        8.2220   -3.3130    6.1650 hc        1 P6L      0.047200
     91 H352        7.2570   -1.8870    5.6280 hc        1 P6L      0.047200
     92 H361        9.3590   -1.8890    7.9090 hc        1 P6L      0.038700
     93 H362        8.3900   -0.4620    7.3750 hc        1 P6L      0.038700
     94 H371      -11.8060   -9.4420   -6.5160 hc        1 P6L      0.038200
     95 H372      -11.4450   -7.8910   -7.3650 hc        1 P6L      0.038200
     96 H381       10.3230   -2.1010    5.5900 hc        1 P6L      0.040700
     97 H382        9.3560   -0.6720    5.0590 hc        1 P6L      0.040700
     98 H391       11.4670   -0.6800    7.3280 hc        1 P6L      0.038200
     99 H392       10.5000    0.7480    6.7960 hc        1 P6L      0.038200
    100 H401       12.4300   -0.8900    5.0090 hc        1 P6L      0.040200
    101 H402       11.4640    0.5390    4.4790 hc        1 P6L      0.040200
    102 H411       12.6100    1.9580    6.2160 hc        1 P6L      0.038200
    103 H412       13.5760    0.5290    6.7470 hc        1 P6L      0.038200
    104 H421       13.5730    1.7490    3.8980 hc        1 P6L      0.039700
    105 H422       14.5390    0.3200    4.4280 hc        1 P6L      0.039700
    106 H431       14.7180    3.1660    5.6350 hc        1 P6L      0.037200
    107 H432       15.6840    1.7370    6.1650 hc        1 P6L      0.037200
    108 H441       16.6760    1.5490    3.8590 hc        1 P6L      0.031367
    109 H442       16.9860    3.1750    4.5960 hc        1 P6L      0.031367
    110 H443       15.7070    2.9820    3.3270 hc        1 P6L      0.031367
    111 H451      -13.8490   -8.3960   -5.4760 hc        1 P6L      0.040200
    112 H452      -13.4880   -6.8460   -6.3260 hc        1 P6L      0.040200
    113 H461      -14.0050   -9.5770   -7.6960 hc        1 P6L      0.038200
    114 H462      -13.6450   -8.0250   -8.5450 hc        1 P6L      0.038200
    115 H471      -16.0480   -8.5320   -6.6560 hc        1 P6L      0.039700
    116 H472      -15.6870   -6.9810   -7.5060 hc        1 P6L      0.039700
    117 H481      -15.8430   -8.1600   -9.7240 hc        1 P6L      0.037700
    118 H482      -16.2030   -9.7110   -8.8740 hc        1 P6L      0.037700
    119 H491      -17.9050   -7.1260   -8.7150 hc        1 P6L      0.031367
    120 H492      -18.2670   -8.6810   -7.8630 hc        1 P6L      0.031367
    121 H493      -18.2960   -8.6130   -9.6730 hc        1 P6L      0.031367
    122 H501       -0.0490   -7.4470    1.1630 h1        1 P6L      0.049700
    123 H502       -1.5690   -8.4750    1.1110 h1        1 P6L      0.049700
    124 H51         0.6610   -9.2160    2.6550 ho        1 P6L      0.410000
    125 C14        -5.4410   -4.5540    2.1920 c         1 P6L      0.671100
@<TRIPOS>BOND
     1    1    2 1   
     2    1   12 1   
     3    1   51 1   
     4    1   52 1   
     5    2    3 1   
     6    2   49 1   
     7    2   53 1   
     8    3   54 1   
     9    4    5 1   
    10    4  125 1   
    11    5    6 1   
    12    5    7 1   
    13    5   55 1   
    14    6    8 1   
    15    6   56 1   
    16    6   57 1   
    17    7    9 1   
    18    7   58 1   
    19    7   59 1   
    20    8   15 1   
    21    9   11 1   
    22   10   11 1   
    23   11   12 1   
    24   11   13 1   
    25   14  125 2   
    26   15   16 2   
    27   15   26 1   
    28   17   18 1   
    29   17   60 1   
    30   17   61 1   
    31   17  125 1   
    32   18   19 1   
    33   18   62 1   
    34   18   63 1   
    35   19   20 1   
    36   19   64 1   
    37   19   65 1   
    38   20   21 1   
    39   20   66 1   
    40   20   67 1   
    41   21   22 2   
    42   21   68 1   
    43   22   23 1   
    44   22   69 1   
    45   23   24 1   
    46   23   70 1   
    47   23   71 1   
    48   24   25 1   
    49   24   72 1   
    50   24   73 1   
    51   25   36 1   
    52   25   74 1   
    53   25   75 1   
    54   26   27 1   
    55   26   76 1   
    56   26   77 1   
    57   27   28 1   
    58   27   78 1   
    59   27   79 1   
    60   28   29 1   
    61   28   80 1   
    62   28   81 1   
    63   29   30 1   
    64   29   82 1   
    65   29   83 1   
    66   30   31 1   
    67   30   84 1   
    68   30   85 1   
    69   31   32 1   
    70   31   86 1   
    71   31   87 1   
    72   32   33 2   
    73   32   88 1   
    74   33   34 1   
    75   33   89 1   
    76   34   35 1   
    77   34   90 1   
    78   34   91 1   
    79   35   37 1   
    80   35   92 1   
    81   35   93 1   
    82   36   44 1   
    83   36   94 1   
    84   36   95 1   
    85   37   38 1   
    86   37   96 1   
    87   37   97 1   
    88   38   39 1   
    89   38   98 1   
    90   38   99 1   
    91   39   40 1   
    92   39  100 1   
    93   39  101 1   
    94   40   41 1   
    95   40  102 1   
    96   40  103 1   
    97   41   42 1   
    98   41  104 1   
    99   41  105 1   
   100   42   43 1   
   101   42  106 1   
   102   42  107 1   
   103   43  108 1   
   104   43  109 1   
   105   43  110 1   
   106   44   45 1   
   107   44  111 1   
   108   44  112 1   
   109   45   46 1   
   110   45  113 1   
   111   45  114 1   
   112   46   47 1   
   113   46  115 1   
   114   46  116 1   
   115   47   48 1   
   116   47  117 1   
   117   47  118 1   
   118   48  119 1   
   119   48  120 1   
   120   48  121 1   
   121   49   50 1   
   122   49  122 1   
   123   49  123 1   
   124   50  124 1   
@<TRIPOS>SUBSTRUCTURE
     1 P6L         1 TEMP              0 ****  ****    0 ROOT
