@<TRIPOS>MOLECULE
molecule
  125   124     1     0     0
SMALL
bcc


@<TRIPOS>ATOM
      1 C1           0.0000     0.0000     0.0000 c3         1 P6L       0.165400
      2 C2           1.5310     0.0000     0.0000 c3         1 P6L       0.150100
      3 O3           2.0070     0.0000     1.3470 oh         1 P6L      -0.591800
      4 O4          -4.5360    -4.6620     1.2390 os         1 P6L      -0.412900
      5 C5          -4.7500    -3.4650     2.0320 c3         1 P6L       0.154100
      6 C6          -4.1160    -3.6460     3.4110 c3         1 P6L       0.168400
      7 C7          -4.1090    -2.2670     1.3290 c3         1 P6L       0.141400
      8 O8          -2.6750    -3.7610     3.2720 os         1 P6L      -0.370900
      9 O9          -2.6910    -2.4420     1.2860 os         1 P6L      -0.522200
     10 O10         -2.5400     0.0760     1.2260 o          1 P6L      -0.823000
     11 P11         -2.0840    -1.1520     0.5390 p5         1 P6L       1.280800
     12 O12         -0.4760    -1.2210     0.5700 os         1 P6L      -0.535200
     13 O13         -2.5910    -1.1310    -0.9900 o          1 P6L      -0.823000
     14 O15         -6.4140    -4.3390     0.1210 o          1 P6L      -0.569000
     15 C16         -1.9060    -3.9290     4.3580 c          1 P6L       0.639100
     16 O17         -2.4130    -3.9830     5.4540 o          1 P6L      -0.594000
     17 C18         -5.2080    -6.2600    -0.5200 c3         1 P6L      -0.122400
     18 C19         -6.3660    -6.4340    -1.5040 c3         1 P6L      -0.081400
     19 C20         -6.1400    -7.6950    -2.3400 c3         1 P6L      -0.099400
     20 C21         -7.2980    -7.8690    -3.3240 c3         1 P6L       0.067800
     21 C22         -7.0750    -9.1120    -4.1470 c2         1 P6L      -0.228200
     22 C23         -8.0180   -10.0180    -4.2320 c2         1 P6L      -0.247200
     23 C24         -9.3810    -9.7440    -3.6530 c3         1 P6L       0.066800
     24 C25        -10.4470    -9.9740    -4.7260 c3         1 P6L      -0.097400
     25 C26        -11.8320    -9.6960    -4.1380 c3         1 P6L      -0.090400
     26 C27         -0.4110    -4.0470     4.2130 c3         1 P6L      -0.124400
     27 C28          0.2230    -4.2290     5.5930 c3         1 P6L      -0.071400
     28 C29          1.7410    -4.3490     5.4450 c3         1 P6L      -0.084400
     29 C30          2.3750    -4.5320     6.8250 c3         1 P6L      -0.081400
     30 C31          3.8930    -4.6520     6.6770 c3         1 P6L      -0.078400
     31 C32          4.5280    -4.8350     8.0580 c3         1 P6L      -0.049200
     32 C33          6.0230    -4.9530     7.9120 c2         1 P6L      -0.168200
     33 C34          6.8120    -4.1470     8.5780 c2         1 P6L      -0.185200
     34 C35          8.3070    -4.2660     8.4310 c3         1 P6L      -0.046200
     35 C36          8.8890    -2.9130     8.0160 c3         1 P6L      -0.078400
     36 C37        -12.8980    -9.9240    -5.2110 c3         1 P6L      -0.080400
     37 C38         10.4060    -3.0350     7.8670 c3         1 P6L      -0.082400
     38 C39         10.9880    -1.6810     7.4510 c3         1 P6L      -0.082400
     39 C40         12.5060    -1.8020     7.3040 c3         1 P6L      -0.082400
     40 C41         13.0870    -0.4490     6.8870 c3         1 P6L      -0.082400
     41 C42         14.6050    -0.5710     6.7390 c3         1 P6L      -0.081400
     42 C43         15.1860     0.7830     6.3240 c3         1 P6L      -0.084400
     43 C44         16.7040     0.6620     6.1750 c3         1 P6L      -0.092100
     44 C45        -14.2830    -9.6470    -4.6220 c3         1 P6L      -0.082400
     45 C46        -15.3490    -9.8760    -5.6960 c3         1 P6L      -0.082400
     46 C47        -16.7330    -9.5980    -5.1060 c3         1 P6L      -0.081400
     47 C48        -17.7990    -9.8270    -6.1790 c3         1 P6L      -0.084400
     48 C49        -19.1830    -9.5490    -5.5920 c3         1 P6L      -0.092100
     49 C50          2.0400     1.2490    -0.7210 c3         1 P6L       0.097400
     50 O51          3.4650     1.1920    -0.8240 oh         1 P6L      -0.626800
     51 H11         -0.3610     0.0880    -1.0180 h1         1 P6L       0.063200
     52 H12         -0.3610     0.8370     0.5850 h1         1 P6L       0.063200
     53 H2           1.8920    -0.8850    -0.5110 h1         1 P6L       0.044700
     54 HO3          2.9320    -0.1790     1.3530 ho         1 P6L       0.393000
     55 H5          -5.8140    -3.2910     2.1430 h1         1 P6L       0.067700
     56 H61         -4.5070    -4.5450     3.8730 h1         1 P6L       0.046700
     57 H62         -4.3510    -2.7900     4.0320 h1         1 P6L       0.046700
     58 H71         -4.3440    -1.3600     1.8730 h1         1 P6L       0.069200
     59 H72         -4.4940    -2.1920     0.3190 h1         1 P6L       0.069200
     60 H181        -5.1580    -7.1220     0.1350 hc         1 P6L       0.072200
     61 H182        -4.2780    -6.1680    -1.0680 hc         1 P6L       0.072200
     62 H191        -7.2950    -6.5250    -0.9560 hc         1 P6L       0.056200
     63 H192        -6.4150    -5.5710    -2.1590 hc         1 P6L       0.056200
     64 H201        -6.0900    -8.5570    -1.6860 hc         1 P6L       0.054200
     65 H202        -5.2110    -7.6030    -2.8890 hc         1 P6L       0.054200
     66 H211        -8.2270    -7.9610    -2.7760 hc         1 P6L       0.047700
     67 H212        -7.3480    -7.0080    -3.9780 hc         1 P6L       0.047700
     68 H22         -7.5910    -8.2540    -4.5610 ha         1 P6L       0.075000
     69 H23         -8.2210   -10.1880    -3.1820 ha         1 P6L       0.069000
     70 H241        -9.5590   -10.4110    -2.8180 hc         1 P6L       0.044200
     71 H242        -9.4280    -8.7170    -3.3110 hc         1 P6L       0.044200
     72 H251       -10.3990   -11.0010    -5.0680 hc         1 P6L       0.052700
     73 H252       -10.2680    -9.3070    -5.5610 hc         1 P6L       0.052700
     74 H261       -12.0100   -10.3630    -3.3040 hc         1 P6L       0.039700
     75 H262       -11.8790    -8.6690    -3.7950 hc         1 P6L       0.039700
     76 H271        -0.1760    -4.9030     3.5920 hc         1 P6L       0.081200
     77 H272        -0.0210    -3.1480     3.7510 hc         1 P6L       0.081200
     78 H281        -0.0120    -3.3730     6.2140 hc         1 P6L       0.052200
     79 H282        -0.1670    -5.1280     6.0540 hc         1 P6L       0.052200
     80 H291         2.1320    -3.4500     4.9840 hc         1 P6L       0.044200
     81 H292         1.9770    -5.2050     4.8230 hc         1 P6L       0.044200
     82 H301         1.9850    -5.4310     7.2860 hc         1 P6L       0.040200
     83 H302         2.1400    -3.6760     7.4460 hc         1 P6L       0.040200
     84 H311         4.2830    -3.7530     6.2160 hc         1 P6L       0.043700
     85 H312         4.1280    -5.5080     6.0560 hc         1 P6L       0.043700
     86 H321         4.1370    -5.7340     8.5190 hc         1 P6L       0.045200
     87 H322         4.2920    -3.9790     8.6790 hc         1 P6L       0.045200
     88 H33          6.4450    -5.7060     7.2580 ha         1 P6L       0.122000
     89 H34          6.3900    -3.3940     9.2320 ha         1 P6L       0.124000
     90 H351         8.5380    -5.0060     7.6750 hc         1 P6L       0.042700
     91 H352         8.7400    -4.5700     9.3770 hc         1 P6L       0.042700
     92 H361         8.6580    -2.1730     8.7720 hc         1 P6L       0.045200
     93 H362         8.4560    -2.6090     7.0700 hc         1 P6L       0.045200
     94 H371       -12.8500   -10.9510    -5.5540 hc         1 P6L       0.041700
     95 H372       -12.7200    -9.2560    -6.0450 hc         1 P6L       0.041700
     96 H381        10.8380    -3.3390     8.8130 hc         1 P6L       0.039200
     97 H382        10.6370    -3.7750     7.1100 hc         1 P6L       0.039200
     98 H391        10.5560    -1.3780     6.5050 hc         1 P6L       0.042700
     99 H392        10.7560    -0.9410     8.2080 hc         1 P6L       0.042700
    100 H401        12.7370    -2.5430     6.5480 hc         1 P6L       0.039700
    101 H402        12.9380    -2.1040     8.2500 hc         1 P6L       0.039700
    102 H411        12.8550     0.2910     7.6420 hc         1 P6L       0.042200
    103 H412        12.6550    -0.1470     5.9400 hc         1 P6L       0.042200
    104 H421        15.0360    -0.8740     7.6860 hc         1 P6L       0.039700
    105 H422        14.8360    -1.3110     5.9830 hc         1 P6L       0.039700
    106 H431        14.9550     1.5230     7.0800 hc         1 P6L       0.040700
    107 H432        14.7540     1.0860     5.3780 hc         1 P6L       0.040700
    108 H441        17.1160     1.6200     5.8810 hc         1 P6L       0.031367
    109 H442        16.9360    -0.0780     5.4180 hc         1 P6L       0.031367
    110 H443        17.1370     0.3580     7.1210 hc         1 P6L       0.031367
    111 H451       -14.4610   -10.3150    -3.7880 hc         1 P6L       0.041200
    112 H452       -14.3310    -8.6210    -4.2790 hc         1 P6L       0.041200
    113 H461       -15.3010   -10.9030    -6.0380 hc         1 P6L       0.040700
    114 H462       -15.1700    -9.2080    -6.5300 hc         1 P6L       0.040700
    115 H471       -16.9110   -10.2660    -4.2720 hc         1 P6L       0.041700
    116 H472       -16.7800    -8.5720    -4.7630 hc         1 P6L       0.041700
    117 H481       -17.7520   -10.8540    -6.5220 hc         1 P6L       0.039200
    118 H482       -17.6200    -9.1590    -7.0140 hc         1 P6L       0.039200
    119 H491       -19.9380    -9.7140    -6.3520 hc         1 P6L       0.031700
    120 H492       -19.3610   -10.2150    -4.7560 hc         1 P6L       0.031700
    121 H493       -19.2320    -8.5220    -5.2510 hc         1 P6L       0.031700
    122 H501         1.7540     2.1310    -0.1610 h1         1 P6L       0.032200
    123 H502         1.6080     1.2950    -1.7130 h1         1 P6L       0.032200
    124 H51          3.7670     1.8840    -1.3880 ho         1 P6L       0.394000
    125 C14         -5.4310    -5.0170     0.3030 c          1 P6L       0.641100
@<TRIPOS>BOND
     1     1     2 1
     2     1    12 1
     3     1    51 1
     4     1    52 1
     5     2     3 1
     6     2    49 1
     7     2    53 1
     8     3    54 1
     9     4     5 1
    10     4   125 1
    11     5     6 1
    12     5     7 1
    13     5    55 1
    14     6     8 1
    15     6    56 1
    16     6    57 1
    17     7     9 1
    18     7    58 1
    19     7    59 1
    20     8    15 1
    21     9    11 1
    22    10    11 1
    23    11    12 1
    24    11    13 1
    25   125    14 2
    26   125    17 1
    27    15    16 2
    28    15    26 1
    29    17    18 1
    30    17    60 1
    31    17    61 1
    32    18    19 1
    33    18    62 1
    34    18    63 1
    35    19    20 1
    36    19    64 1
    37    19    65 1
    38    20    21 1
    39    20    66 1
    40    20    67 1
    41    21    22 2
    42    21    68 1
    43    22    23 1
    44    22    69 1
    45    23    24 1
    46    23    70 1
    47    23    71 1
    48    24    25 1
    49    24    72 1
    50    24    73 1
    51    25    36 1
    52    25    74 1
    53    25    75 1
    54    26    27 1
    55    26    76 1
    56    26    77 1
    57    27    28 1
    58    27    78 1
    59    27    79 1
    60    28    29 1
    61    28    80 1
    62    28    81 1
    63    29    30 1
    64    29    82 1
    65    29    83 1
    66    30    31 1
    67    30    84 1
    68    30    85 1
    69    31    32 1
    70    31    86 1
    71    31    87 1
    72    32    33 2
    73    32    88 1
    74    33    34 1
    75    33    89 1
    76    34    35 1
    77    34    90 1
    78    34    91 1
    79    35    37 1
    80    35    92 1
    81    35    93 1
    82    36    44 1
    83    36    94 1
    84    36    95 1
    85    37    38 1
    86    37    96 1
    87    37    97 1
    88    38    39 1
    89    38    98 1
    90    38    99 1
    91    39    40 1
    92    39   100 1
    93    39   101 1
    94    40    41 1
    95    40   102 1
    96    40   103 1
    97    41    42 1
    98    41   104 1
    99    41   105 1
   100    42    43 1
   101    42   106 1
   102    42   107 1
   103    43   108 1
   104    43   109 1
   105    43   110 1
   106    44    45 1
   107    44   111 1
   108    44   112 1
   109    45    46 1
   110    45   113 1
   111    45   114 1
   112    46    47 1
   113    46   115 1
   114    46   116 1
   115    47    48 1
   116    47   117 1
   117    47   118 1
   118    48   119 1
   119    48   120 1
   120    48   121 1
   121    49    50 1
   122    49   122 1
   123    49   123 1
   124    50   124 1
@<TRIPOS>SUBSTRUCTURE
     1 P6L         1 TEMP              0 ****  ****    0 ROOT
