@<TRIPOS>MOLECULE
molecule
   47    49     1     0     0
SMALL
bcc


@<TRIPOS>ATOM
      1 F1           0.0000     0.0000     0.0000 f          1 P6M      -0.126900
      2 C7           1.3510     0.0000     0.0000 ca         1 P6M       0.178900
      3 C6           2.0440     0.0000     1.1990 ca         1 P6M      -0.163300
      4 C8           2.0430    -0.0070    -1.1980 ca         1 P6M      -0.195000
      5 C9           3.4280    -0.0070    -1.1960 ca         1 P6M       0.214900
      6 F            4.1050    -0.0130    -2.3660 f          1 P6M      -0.095900
      7 C4           4.1180    -0.0020     0.0030 ca         1 P6M      -0.141300
      8 C5           3.4250    -0.0010     1.2000 ca         1 P6M      -0.070000
      9 C3           5.6250    -0.0030     0.0060 c3         1 P6M       0.200100
     10 N            6.1140    -1.3430    -0.3460 n7         1 P6M      -0.755200
     11 C1           7.5750    -1.4200    -0.2160 cx         1 P6M       0.027200
     12 C16          8.3710    -0.5500    -1.1910 c3         1 P6M       0.666900
     13 F2           7.9790    -0.8380    -2.5020 f          1 P6M      -0.215300
     14 F3           8.1250     0.8000    -0.9170 f          1 P6M      -0.215300
     15 F4           9.7370    -0.8140    -1.0440 f          1 P6M      -0.215300
     16 C2           8.1510    -1.6170     1.1870 cx         1 P6M      -0.121400
     17 C            8.1790    -2.7690     0.1800 cx         1 P6M      -0.121400
     18 C10          1.2830     0.0010     2.5150 c3         1 P6M       0.220500
     19 C11          0.3800     1.2170     2.5160 c3         1 P6M      -0.114400
     20 C12          0.1950     1.8700     3.8820 c3         1 P6M       0.023400
     21 S            1.8240     2.3670     4.5110 ss         1 P6M      -0.214300
     22 C13          2.6060     0.7880     4.4370 c2         1 P6M       0.461100
     23 N1           2.2640    -0.0860     3.5690 n2         1 P6M      -0.562900
     24 N2           3.6000     0.5030     5.3340 nz         1 P6M      -0.733600
     25 C15          0.4240    -1.2710     2.5320 c3         1 P6M      -0.079100
     26 C14         -0.4850     0.9310     4.8750 c3         1 P6M      -0.097100
     27 H1           1.5030     0.0210    -2.1370 ha         1 P6M       0.183000
     28 H2           3.9660     0.0010     2.1380 ha         1 P6M       0.123000
     29 H3           5.9840     0.2660     0.9920 h1         1 P6M       0.057700
     30 H4           5.9870     0.7160    -0.7190 h1         1 P6M       0.057700
     31 H5           5.6900    -2.0220     0.2550 hn         1 P6M       0.366800
     32 H7           7.4210    -1.7090     1.9830 hc         1 P6M       0.090450
     33 H8           9.1030    -1.1350     1.3730 hc         1 P6M       0.090450
     34 H9           7.4660    -3.5650     0.3610 hc         1 P6M       0.090450
     35 H10          9.1480    -2.9910    -0.2490 hc         1 P6M       0.090450
     36 H11          0.7990     1.9530     1.8410 hc         1 P6M       0.094700
     37 H12         -0.5940     0.9190     2.1470 hc         1 P6M       0.094700
     38 H13         -0.4150     2.7570     3.7610 h1         1 P6M       0.128700
     39 H14          3.8050    -0.4760     5.3040 hn         1 P6M       0.469800
     40 H15          4.4210     1.0230     5.0970 hn         1 P6M       0.469800
     41 H16          0.3370    -1.6340     3.5490 hc         1 P6M       0.065367
     42 H17          0.8910    -2.0300     1.9160 hc         1 P6M       0.065367
     43 H18         -0.5620    -1.0460     2.1440 hc         1 P6M       0.065367
     44 H19         -0.6800     1.4620     5.7990 hc         1 P6M       0.057367
     45 H20         -1.4200     0.5790     4.4560 hc         1 P6M       0.057367
     46 H21          0.1620     0.0850     5.0740 hc         1 P6M       0.057367
     47 H23          3.2890     0.7250     6.2590 hn         1 P6M       0.469800
@<TRIPOS>BOND
     1    26    20 1
     2    20    19 1
     3    20    21 1
     4    19    18 1
     5     1     2 1
     6    21    22 1
     7     2     4 ar
     8     2     3 ar
     9     4     5 ar
    10    18     3 1
    11    18    25 1
    12    18    23 1
    13     3     8 ar
    14    22    23 2
    15    22    24 1
    16     5     6 1
    17     5     7 ar
    18     8     7 ar
    19     7     9 1
    20    13    12 1
    21    10     9 1
    22    10    11 1
    23    17    11 1
    24    17    16 1
    25    11    12 1
    26    11    16 1
    27    12    14 1
    28    12    15 1
    29     4    27 1
    30     8    28 1
    31     9    29 1
    32     9    30 1
    33    10    31 1
    34    16    32 1
    35    16    33 1
    36    17    34 1
    37    17    35 1
    38    19    36 1
    39    19    37 1
    40    20    38 1
    41    24    39 1
    42    24    40 1
    43    25    41 1
    44    25    42 1
    45    25    43 1
    46    26    44 1
    47    26    45 1
    48    26    46 1
    49    47    24 1
@<TRIPOS>SUBSTRUCTURE
     1 P6M         1 TEMP              0 ****  ****    0 ROOT
