@<TRIPOS>MOLECULE
P6M
   47    49     1     0     0
SMALL
bcc


@<TRIPOS>ATOM
      1 F1           0.0000     0.0000     0.0000 f          1 P6M      -0.116900
      2 C7           1.3510     0.0000     0.0000 ca         1 P6M       0.157900
      3 C6           2.0440     0.0000     1.1990 ca         1 P6M      -0.168300
      4 C8           2.0430    -0.0070    -1.1980 ca         1 P6M      -0.146000
      5 C9           3.4280    -0.0070    -1.1960 ca         1 P6M       0.196900
      6 F            4.1050    -0.0130    -2.3660 f          1 P6M      -0.097900
      7 C4           4.1180    -0.0020     0.0030 ca         1 P6M      -0.129300
      8 C5           3.4250    -0.0010     1.2000 ca         1 P6M      -0.051000
      9 C3           5.6250    -0.0030     0.0060 c3         1 P6M       0.183100
     10 N            6.1140    -1.3430    -0.3460 n7         1 P6M      -0.499200
     11 C1           7.5750    -1.4200    -0.2160 cx         1 P6M      -0.061800
     12 C16          8.3710    -0.5500    -1.1910 c3         1 P6M       0.627900
     13 F2           7.9790    -0.8380    -2.5020 f          1 P6M      -0.200633
     14 F3           8.1250     0.8000    -0.9170 f          1 P6M      -0.200633
     15 F4           9.7370    -0.8140    -1.0440 f          1 P6M      -0.200633
     16 C2           8.1510    -1.6170     1.1870 cx         1 P6M      -0.053400
     17 C            8.1790    -2.7690     0.1800 cx         1 P6M      -0.053400
     18 C10          1.2830     0.0010     2.5150 c3         1 P6M       0.171500
     19 C11          0.3800     1.2170     2.5160 c3         1 P6M      -0.074400
     20 C12          0.1950     1.8700     3.8820 c3         1 P6M       0.092400
     21 S            1.8240     2.3670     4.5110 ss         1 P6M      -0.257300
     22 C13          2.6060     0.7880     4.4370 c2         1 P6M       0.150100
     23 N1           2.2640    -0.0860     3.5690 n2         1 P6M      -0.340900
     24 N2           3.6000     0.5030     5.3340 nz         1 P6M       0.198400
     25 C15          0.4240    -1.2710     2.5320 c3         1 P6M      -0.002100
     26 C14         -0.4850     0.9310     4.8750 c3         1 P6M      -0.005100
     27 H1           1.5030     0.0210    -2.1370 ha         1 P6M       0.153000
     28 H2           3.9660     0.0010     2.1380 ha         1 P6M       0.093000
     29 H3           5.9840     0.2660     0.9920 h1         1 P6M       0.030200
     30 H4           5.9870     0.7160    -0.7190 h1         1 P6M       0.030200
     31 H5           5.6900    -2.0220     0.2550 hn         1 P6M       0.258800
     32 H7           7.4210    -1.7090     1.9830 hc         1 P6M       0.059200
     33 H8           9.1030    -1.1350     1.3730 hc         1 P6M       0.059200
     34 H9           7.4660    -3.5650     0.3610 hc         1 P6M       0.059200
     35 H10          9.1480    -2.9910    -0.2490 hc         1 P6M       0.059200
     36 H11          0.7990     1.9530     1.8410 hc         1 P6M       0.071700
     37 H12         -0.5940     0.9190     2.1470 hc         1 P6M       0.071700
     38 H13         -0.4150     2.7570     3.7610 h1         1 P6M       0.100700
     39 H14          3.8050    -0.4760     5.3040 hn         1 P6M       0.220467
     40 H15          4.4210     1.0230     5.0970 hn         1 P6M       0.220467
     41 H16          0.3370    -1.6340     3.5490 hc         1 P6M       0.033033
     42 H17          0.8910    -2.0300     1.9160 hc         1 P6M       0.033033
     43 H18         -0.5620    -1.0460     2.1440 hc         1 P6M       0.033033
     44 H19         -0.6800     1.4620     5.7990 hc         1 P6M       0.025367
     45 H20         -1.4200     0.5790     4.4560 hc         1 P6M       0.025367
     46 H21          0.1620     0.0850     5.0740 hc         1 P6M       0.025367
     47 H23          3.2890     0.7250     6.2590 hn         1 P6M       0.220467
@<TRIPOS>BOND
     1     1     2 1   
     2     2     3 ar  
     3     2     4 ar  
     4     3     8 ar  
     5     3    18 1   
     6     4     5 ar  
     7     4    27 1   
     8     5     6 1   
     9     5     7 ar  
    10     7     8 ar  
    11     7     9 1   
    12     8    28 1   
    13     9    10 1   
    14     9    29 1   
    15     9    30 1   
    16    10    11 1   
    17    10    31 1   
    18    11    12 1   
    19    11    16 1   
    20    11    17 1   
    21    12    13 1   
    22    12    14 1   
    23    12    15 1   
    24    16    17 1   
    25    16    32 1   
    26    16    33 1   
    27    17    34 1   
    28    17    35 1   
    29    18    19 1   
    30    18    23 1   
    31    18    25 1   
    32    19    20 1   
    33    19    36 1   
    34    19    37 1   
    35    20    21 1   
    36    20    26 1   
    37    20    38 1   
    38    21    22 1   
    39    22    23 2   
    40    22    24 1   
    41    24    39 1   
    42    24    40 1   
    43    24    47 1   
    44    25    41 1   
    45    25    42 1   
    46    25    43 1   
    47    26    44 1   
    48    26    45 1   
    49    26    46 1   
@<TRIPOS>SUBSTRUCTURE
     1 P6M         1 TEMP              0 ****  ****    0 ROOT
