@<TRIPOS>MOLECULE
P6T
   30    29     1     0     0
SMALL
bcc


@<TRIPOS>ATOM
      1 O1         -0.2670   -0.1500   -0.1630 os        1 P6T     -0.555200
      2 C1          1.0930   -0.0250   -0.2340 c3        1 P6T      0.140400
      3 C2          1.8220   -0.5490    0.9890 c         1 P6T      0.541100
      4 C3          3.3570   -0.3980    0.9750 c3        1 P6T      0.000100
      5 C4          4.0890   -1.7640    0.9950 c3        1 P6T      0.113100
      6 C5          5.5860   -1.6390    1.3690 c3        1 P6T      0.088100
      7 C6          6.0870   -2.8810    2.1480 c3        1 P6T      0.201400
      8 O63         9.8160   -3.1870    2.8060 o         1 P6T     -0.935833
      9 P6          8.6020   -3.6340    2.0360 p5        1 P6T      1.325900
     10 O61         8.5460   -3.2120    0.5840 o         1 P6T     -0.935833
     11 O62         8.1410   -5.0400    2.3110 o         1 P6T     -0.935833
     12 O6          7.3340   -2.6580    2.6810 os        1 P6T     -0.577200
     13 O5          6.3210   -1.4480    0.1730 oh        1 P6T     -0.691800
     14 O4          3.9080   -2.4050   -0.2550 oh        1 P6T     -0.617800
     15 O3          3.7290    0.3800    2.1070 oh        1 P6T     -0.604800
     16 O2          1.3130   -1.0380    2.0060 o         1 P6T     -0.598100
     17 P1         -1.1910    1.1620   -0.8450 p5        1 P6T      1.319900
     18 O13        -1.2400    0.8050   -2.3080 o         1 P6T     -0.938833
     19 O11        -2.5080    1.0700   -0.1190 o         1 P6T     -0.938833
     20 O12        -0.3440    2.3670   -0.5200 o         1 P6T     -0.938833
     21 H1          1.3870    1.0610   -0.3650 h1        1 P6T      0.031200
     22 H1A         1.5180   -0.6360   -1.0910 h1        1 P6T      0.031200
     23 H3          3.6930    0.2020    0.0880 h1        1 P6T      0.080700
     24 H4          3.5680   -2.4270    1.7420 h1        1 P6T      0.056700
     25 H5          5.7300   -0.7230    2.0070 h1        1 P6T      0.041700
     26 H6          5.3480   -3.0730    2.9820 h1        1 P6T     -0.004300
     27 H6A         6.0950   -3.7700    1.4560 h1        1 P6T     -0.004300
     28 HO5         7.1420   -2.0000    0.2450 ho        1 P6T      0.494000
     29 HO4         4.6510   -2.1480   -0.8190 ho        1 P6T      0.417000
     30 HO3         3.3900   -0.0930    2.8780 ho        1 P6T      0.394000
@<TRIPOS>BOND
     1    1    2 1   
     2    1   17 1   
     3    2    3 1   
     4    2   21 1   
     5    2   22 1   
     6    3    4 1   
     7    3   16 2   
     8    4    5 1   
     9    4   15 1   
    10    4   23 1   
    11    5    6 1   
    12    5   14 1   
    13    5   24 1   
    14    6    7 1   
    15    6   13 1   
    16    6   25 1   
    17    7   12 1   
    18    7   26 1   
    19    7   27 1   
    20    8    9 1   
    21    9   10 1   
    22    9   11 1   
    23    9   12 1   
    24   13   28 1   
    25   14   29 1   
    26   15   30 1   
    27   17   18 1   
    28   17   19 1   
    29   17   20 1   
@<TRIPOS>SUBSTRUCTURE
     1 P6T         1 TEMP              0 ****  ****    0 ROOT
