@<TRIPOS>MOLECULE
molecule
   30    29     1     0     0
SMALL
bcc


@<TRIPOS>ATOM
      1 O1           0.0000     0.0000     0.0000 os         1 P6T      -0.572200
      2 C1           1.4290     0.0000     0.0000 c3         1 P6T       0.130400
      3 C2           1.9310     0.0000     1.4210 c          1 P6T       0.524100
      4 C3           3.4130    -0.0010     1.6970 c3         1 P6T       0.022100
      5 C4           3.9820    -1.3950     1.4250 c3         1 P6T       0.159100
      6 C5           5.4860    -1.3940     1.7050 c3         1 P6T       0.122100
      7 C6           6.0770    -2.7500     1.3150 c3         1 P6T       0.201400
      8 O63          9.8450    -3.8360     2.0800 o          1 P6T      -0.924833
      9 P6           8.3960    -4.0740     1.4210 p5         1 P6T       1.206900
     10 O61          8.5580    -4.3050    -0.1630 o          1 P6T      -0.924833
     11 O62          7.7790    -5.2710     2.0340 o          1 P6T      -0.924833
     12 O6           7.4570    -2.7930     1.6840 os         1 P6T      -0.594200
     13 O5           6.1130    -0.3640     0.9400 oh         1 P6T      -0.599800
     14 O4           3.7520    -1.7440     0.0580 oh         1 P6T      -0.579800
     15 O3           3.6430     0.3500     3.0640 oh         1 P6T      -0.604800
     16 O2           1.1460     0.0010     2.3390 o          1 P6T      -0.534100
     17 P1          -0.8760    -0.0010    -1.3510 p5         1 P6T       1.201900
     18 O13         -0.4730    -1.1450    -2.1990 o          1 P6T      -0.921833
     19 O11         -2.4370    -0.1310    -0.9780 o          1 P6T      -0.921833
     20 O12         -0.6290     1.3740    -2.1510 o          1 P6T      -0.921833
     21 H1           1.7910     0.8840    -0.5110 h1         1 P6T       0.048200
     22 H1A          1.7900    -0.8850    -0.5100 h1         1 P6T       0.048200
     23 H3           3.9010     0.7200     1.0520 h1         1 P6T       0.064700
     24 H4           3.4940    -2.1160     2.0690 h1         1 P6T       0.043700
     25 H5           5.6570    -1.2160     2.7600 h1         1 P6T       0.031700
     26 H6           5.5410    -3.5390     1.8290 h1         1 P6T       0.024200
     27 H6A          5.9850    -2.8900     0.2450 h1         1 P6T       0.024200
     28 HO5          6.7730     0.0590     1.4640 ho         1 P6T       0.384000
     29 HO4          3.4000    -2.6180     0.0120 ho         1 P6T       0.408000
     30 HO3          3.7570     1.2830     3.1340 ho         1 P6T       0.380000
@<TRIPOS>BOND
     1     1    17 1
     2     1     2 1
     3     3     2 1
     4     2    21 1
     5     2    22 1
     6    16     3 2
     7     3     4 1
     8    15     4 1
     9     4     5 1
    10     4    23 1
    11    14     5 1
    12     5     6 1
    13     5    24 1
    14     6     7 1
    15     6    13 1
    16     6    25 1
    17     7    12 1
    18     7    26 1
    19     7    27 1
    20     9     8 1
    21    11     9 1
    22    12     9 1
    23     9    10 1
    24    13    28 1
    25    14    29 1
    26    15    30 1
    27    18    17 1
    28    17    20 1
    29    17    19 1
@<TRIPOS>SUBSTRUCTURE
     1 P6T         1 TEMP              0 ****  ****    0 ROOT
