@<TRIPOS>MOLECULE
molecule
   44    46     1     0     0
SMALL
bcc


@<TRIPOS>ATOM
      1 C1           1.5290     0.0000     0.0000 c3         1 P6U      -0.089100
      2 C2           0.0000     0.0000     0.0000 c3         1 P6U       0.220500
      3 C3          -0.4920     0.0000     1.4430 c3         1 P6U      -0.123400
      4 C4          -0.0710     1.3150     2.1150 c3         1 P6U       0.007700
      5 S1          -1.0740     2.6480     1.4040 ss         1 P6U      -0.206300
      6 C5          -0.9060     2.2640    -0.3050 c2         1 P6U       0.469100
      7 N1          -0.4670     1.1470    -0.7480 n2         1 P6U      -0.581900
      8 N2          -1.2670     3.2260    -1.2200 nz         1 P6U      -0.736600
      9 C6          -0.4870    -1.2530    -0.6810 ca         1 P6U      -0.162300
     10 C7          -1.2760    -1.1640    -1.8110 ca         1 P6U      -0.062000
     11 C8          -1.7240    -2.3130    -2.4360 ca         1 P6U      -0.138300
     12 C9          -1.3810    -3.5550    -1.9300 ca         1 P6U       0.217900
     13 C10         -0.5890    -3.6460    -0.7970 ca         1 P6U      -0.197000
     14 C11         -0.1380    -2.4950    -0.1750 ca         1 P6U       0.176900
     15 F1           0.6380    -2.5820     0.9270 f          1 P6U      -0.129900
     16 F2          -1.8180    -4.6780    -2.5410 f          1 P6U      -0.095900
     17 C12         -2.5840    -2.2120    -3.6680 c3         1 P6U       0.204100
     18 N3          -1.7850    -2.5470    -4.8540 n7         1 P6U      -0.760200
     19 C13         -2.6200    -2.5810    -6.0610 cx         1 P6U       0.028200
     20 C14         -3.3850    -1.3080    -6.4270 cx         1 P6U      -0.122900
     21 C15         -2.1720    -1.7370    -7.2550 cx         1 P6U      -0.122900
     22 C16         -3.2970    -3.9220    -6.3580 c3         1 P6U       0.669900
     23 F3          -4.2200    -4.2110    -5.3470 f          1 P6U      -0.215300
     24 F4          -3.9590    -3.8480    -7.5870 f          1 P6U      -0.215300
     25 F5          -2.3290    -4.9310    -6.4090 f          1 P6U      -0.215300
     26 H1           1.8910     1.0210    -0.0340 hc         1 P6U       0.066367
     27 H3           1.8910    -0.4810     0.9010 hc         1 P6U       0.066367
     28 H2           1.8900    -0.5400    -0.8670 hc         1 P6U       0.066367
     29 H5          -1.5720    -0.0830     1.4570 hc         1 P6U       0.099200
     30 H4          -0.0520    -0.8350     1.9760 hc         1 P6U       0.099200
     31 H6           0.9780     1.5040     1.9220 h1         1 P6U       0.109700
     32 H9          -2.2300     3.1070    -1.4660 hn         1 P6U       0.470467
     33 H8          -1.1340     4.1340    -0.8210 hn         1 P6U       0.470467
     34 H10         -1.5450    -0.1920    -2.2080 ha         1 P6U       0.133000
     35 H11         -0.3180    -4.6170    -0.4020 ha         1 P6U       0.181000
     36 H13         -3.4150    -2.9030    -3.5860 h1         1 P6U       0.054700
     37 H12         -2.9630    -1.2020    -3.7630 h1         1 P6U       0.054700
     38 H14         -1.0590    -1.8680    -4.9690 hn         1 P6U       0.365800
     39 H15         -3.2270    -0.4620    -5.7690 hc         1 P6U       0.090700
     40 H16         -4.3490    -1.4610    -6.8970 hc         1 P6U       0.090700
     41 H17         -1.2730    -1.1530    -7.1030 hc         1 P6U       0.090700
     42 H18         -2.3950    -2.1510    -8.2310 hc         1 P6U       0.090700
     43 H7          -0.2490     1.2540     3.1820 h1         1 P6U       0.109700
     44 H23         -0.6900     3.1460    -2.0340 hn         1 P6U       0.470467
@<TRIPOS>BOND
     1     1     2 1
     2     2     3 1
     3     2     7 1
     4     2     9 1
     5     3     4 1
     6     4     5 1
     7     5     6 1
     8     6     7 2
     9     6     8 1
    10     9    10 ar
    11     9    14 ar
    12    10    11 ar
    13    11    12 ar
    14    11    17 1
    15    12    13 ar
    16    12    16 1
    17    13    14 ar
    18    14    15 1
    19    17    18 1
    20    18    19 1
    21    19    20 1
    22    19    21 1
    23    19    22 1
    24    20    21 1
    25    22    23 1
    26    22    24 1
    27    22    25 1
    28     1    26 1
    29     1    27 1
    30     1    28 1
    31     3    29 1
    32     3    30 1
    33     4    43 1
    34     4    31 1
    35     8    32 1
    36     8    33 1
    37    10    34 1
    38    13    35 1
    39    17    36 1
    40    17    37 1
    41    18    38 1
    42    20    39 1
    43    20    40 1
    44    21    41 1
    45    21    42 1
    46    44     8 1
@<TRIPOS>SUBSTRUCTURE
     1 P6U         1 TEMP              0 ****  ****    0 ROOT
