@<TRIPOS>MOLECULE
molecule
   43    44     1     0     0
SMALL
bcc


@<TRIPOS>ATOM
      1 C02          0.0000     0.0000     0.0000 c          1 P70       0.906600
      2 C03          1.5070     0.0000     0.0000 c3         1 P70       0.016500
      3 C05          2.7390     1.0780    -1.7410 ce         1 P70       0.438800
      4 C06          3.2310     2.2830    -2.4370 ca         1 P70      -0.126900
      5 C07          2.9040     3.5680    -1.9740 ca         1 P70       0.007800
      6 C08          3.3910     4.6710    -2.6620 ca         1 P70       0.316600
      7 C09          3.0520     6.0570    -2.1810 c3         1 P70      -0.123400
      8 C11          4.4800     3.3300    -4.1930 ca         1 P70       0.418200
      9 C12          4.0430     2.1780    -3.5740 ca         1 P70      -0.138600
     10 C13          4.4310     0.8260    -4.1120 c3         1 P70       0.248700
     11 C20          2.0170     0.0000     1.4430 c3         1 P70      -0.011100
     12 C21          3.5190    -0.1240     1.4440 ca         1 P70      -0.067300
     13 C22          4.1100    -1.3740     1.4750 ca         1 P70      -0.122500
     14 C23          5.4870    -1.4870     1.4760 ca         1 P70      -0.136000
     15 C24          6.2740    -0.3520     1.4480 ca         1 P70      -0.146000
     16 C25          5.6840     0.8980     1.4170 ca         1 P70      -0.136000
     17 C26          4.3060     1.0110     1.4110 ca         1 P70      -0.122500
     18 N04          1.9950     1.1960    -0.6900 n2         1 P70      -0.551900
     19 N10          4.1470     4.5200    -3.7300 nb         1 P70      -0.718000
     20 O01         -0.6710    -1.0030     0.5860 o          1 P70      -0.850300
     21 O14          5.2550     0.9920    -5.2680 os         1 P70      -0.586200
     22 O16          4.6500    -1.0730    -6.7780 o          1 P70      -0.912500
     23 O17          6.8360     0.3070    -7.2530 o          1 P70      -0.912500
     24 O18          6.6130    -1.1340    -5.1920 o          1 P70      -0.912500
     25 O19          2.1260     3.7290    -0.8750 oh         1 P70      -0.493100
     26 O27         -0.6040     0.9070    -0.5230 o          1 P70      -0.850300
     27 P15          5.8550    -0.2470    -6.1030 p5         1 P70       1.185900
     28 H031         1.8680    -0.8840    -0.5110 h1         1 P70       0.035700
     29 H051         3.0000     0.0940    -2.1120 h4         1 P70      -0.007200
     30 H091         3.3200     6.1530    -1.1360 hc         1 P70       0.026367
     31 H093         1.9880     6.2300    -2.2980 hc         1 P70       0.026367
     32 H092         3.6020     6.7870    -2.7630 hc         1 P70       0.026367
     33 H111         5.1060     3.2570    -5.0740 h4         1 P70       0.071100
     34 H131         3.5390     0.2740    -4.3810 h1         1 P70       0.041200
     35 H132         4.9790     0.2790    -3.3540 h1         1 P70       0.041200
     36 H202         1.5850    -0.8360     1.9790 hc         1 P70       0.053700
     37 H201         1.7310     0.9260     1.9270 hc         1 P70       0.053700
     38 H221         3.4930    -2.2640     1.4970 ha         1 P70       0.137500
     39 H231         5.9490    -2.4670     1.4990 ha         1 P70       0.111000
     40 H241         7.3530    -0.4410     1.4500 ha         1 P70       0.108000
     41 H251         6.3010     1.7880     1.3930 ha         1 P70       0.111000
     42 H261         3.8430     1.9910     1.3870 ha         1 P70       0.137500
     43 H1           1.2910     4.0840    -1.1300 ho         1 P70       0.407000
@<TRIPOS>BOND
     1    24    27 1
     2    22    27 1
     3    27    23 1
     4    27    21 1
     5    21    10 1
     6    10     9 1
     7     9     8 ar
     8     9     4 ar
     9     8    19 ar
    10    11    12 1
    11    11     2 1
    12     3     4 1
    13     3    18 2
    14    13    12 ar
    15    13    14 ar
    16     4     5 ar
    17    12    17 ar
    18    14    15 ar
    19     2    18 1
    20     2     1 1
    21    19     6 ar
    22    17    16 ar
    23    15    16 ar
    24     5     6 ar
    25     5    25 1
    26     6     7 1
    27     1    26 1
    28     1    20 1
    29     2    28 1
    30     3    29 1
    31     7    30 1
    32     7    31 1
    33     7    32 1
    34     8    33 1
    35    10    34 1
    36    10    35 1
    37    11    36 1
    38    11    37 1
    39    13    38 1
    40    14    39 1
    41    15    40 1
    42    16    41 1
    43    17    42 1
    44    25    43 1
@<TRIPOS>SUBSTRUCTURE
     1 P70         1 TEMP              0 ****  ****    0 ROOT
