@<TRIPOS>MOLECULE
P70
   43    45     1     0     0
SMALL
bcc


@<TRIPOS>ATOM
      1 C02          0.0000     0.0000     0.0000 c2         1 P70       0.413000
      2 C03          1.5070     0.0000     0.0000 c3         1 P70      -0.098000
      3 C05          2.7390     1.0780    -1.7410 c2         1 P70      -0.339000
      4 C06          3.2310     2.2830    -2.4370 c3         1 P70      -0.203000
      5 C07          2.9040     3.5680    -1.9740 c2         1 P70       0.027000
      6 C08          3.3910     4.6710    -2.6620 c2         1 P70      -0.197000
      7 C09          3.0520     6.0570    -2.1810 c3         1 P70      -0.042000
      8 C11          4.4800     3.3300    -4.1930 c2         1 P70      -0.103000
      9 C12          4.0430     2.1780    -3.5740 c2         1 P70       0.010000
     10 C13          4.4310     0.8260    -4.1120 c3         1 P70       0.157000
     11 C20          2.0170     0.0000     1.4430 c3         1 P70      -0.037000
     12 C21          3.5190    -0.1240     1.4440 ca         1 P70      -0.057000
     13 C22          4.1100    -1.3740     1.4750 ca         1 P70      -0.092000
     14 C23          5.4870    -1.4870     1.4760 ca         1 P70      -0.109500
     15 C24          6.2740    -0.3520     1.4480 ca         1 P70      -0.122000
     16 C25          5.6840     0.8980     1.4170 ca         1 P70      -0.109500
     17 C26          4.3060     1.0110     1.4110 ca         1 P70      -0.092000
     18 N04          1.9950     1.1960    -0.6900 n2         1 P70       0.024000
     19 N10          4.1470     4.5200    -3.7300 n2         1 P70      -0.062000
     20 O01         -0.6710    -1.0030     0.5860 o          1 P70      -0.642500
     21 O14          5.2550     0.9920    -5.2680 os         1 P70      -0.650000
     22 O16          4.6500    -1.0730    -6.7780 o          1 P70      -0.757500
     23 O17          6.8360     0.3070    -7.2530 o          1 P70      -0.757500
     24 O18          6.6130    -1.1340    -5.1920 o          1 P70      -0.757500
     25 O19          2.1260     3.7290    -0.8750 oh         1 P70      -0.220000
     26 O27         -0.6040     0.9070    -0.5230 o          1 P70      -0.642500
     27 P15          5.8550    -0.2470    -6.1030 p5         1 P70       0.907500
     28 H031         1.8680    -0.8840    -0.5110 h1         1 P70       0.087000
     29 H051         2.1410     1.6850    -2.4110 DU         1 P70       0.310000
     30 H091         3.3070     6.1480    -1.1320 hc         1 P70       0.029333
     31 H093         1.9910     6.2350    -2.3110 hc         1 P70       0.029333
     32 H092         3.6130     6.7860    -2.7530 hc         1 P70       0.029333
     33 H111         5.1060     3.2570    -5.0740 h4         1 P70       0.173000
     34 H131         3.5390     0.2740    -4.3810 h1         1 P70       0.057000
     35 H132         4.9790     0.2790    -3.3540 h1         1 P70       0.057000
     36 H202         1.7310     0.9260     1.9270 hc         1 P70       0.060500
     37 H201         1.5850    -0.8360     1.9790 hc         1 P70       0.060500
     38 H221         3.4930    -2.2640     1.4970 ha         1 P70       0.110000
     39 H231         5.9490    -2.4670     1.4990 ha         1 P70       0.085000
     40 H241         7.3530    -0.4410     1.4500 ha         1 P70       0.083000
     41 H251         6.3010     1.7880     1.3930 ha         1 P70       0.085000
     42 H261         3.8430     1.9910     1.3870 ha         1 P70       0.110000
     43 H1           1.3100     4.1310    -1.1230 ho         1 P70       0.184000
@<TRIPOS>BOND
     1     1     2 1   
     2     1    20 1   
     3     1    26 1   
     4     2    11 1   
     5     2    18 1   
     6     2    28 1   
     7     3     4 1   
     8     3    18 1   
     9     3    29 1   
    10     4     5 1   
    11     4     9 1   
    12     4    29 1   
    13     5     6 1   
    14     5    25 1   
    15     6     7 1   
    16     6    19 1   
    17     7    30 1   
    18     7    31 1   
    19     7    32 1   
    20     8     9 1   
    21     8    19 1   
    22     8    33 1   
    23     9    10 1   
    24    10    21 1   
    25    10    34 1   
    26    10    35 1   
    27    11    12 1   
    28    11    36 1   
    29    11    37 1   
    30    12    13 1   
    31    12    17 1   
    32    13    14 1   
    33    13    38 1   
    34    14    15 1   
    35    14    39 1   
    36    15    16 1   
    37    15    40 1   
    38    16    17 1   
    39    16    41 1   
    40    17    42 1   
    41    21    27 1   
    42    22    27 1   
    43    23    27 1   
    44    24    27 1   
    45    25    43 1   
@<TRIPOS>SUBSTRUCTURE
     1 P70         1 TEMP              0 ****  ****    0 ROOT
