@<TRIPOS>MOLECULE
molecule
   43    44     1     0     0
SMALL
bcc


@<TRIPOS>ATOM
      1 C02          0.0000     0.0000     0.0000 c          1 P71       0.804300
      2 C03          1.3960     0.0000     0.0000 ce         1 P71       0.352300
      3 C04          2.1490     0.0000     1.3060 c3         1 P71      -0.125400
      4 C05          2.4260     1.4200     1.7270 ca         1 P71      -0.039300
      5 C06          3.5880     2.0470     1.3170 ca         1 P71      -0.110000
      6 C07          3.8430     3.3500     1.7030 ca         1 P71      -0.145500
      7 C08          2.9360     4.0250     2.4990 ca         1 P71      -0.168000
      8 C09          1.7740     3.3980     2.9080 ca         1 P71      -0.145500
      9 C10          1.5180     2.0960     2.5180 ca         1 P71      -0.110000
     10 C12          3.3720    -0.1150    -1.1520 cf         1 P71      -0.048400
     11 C13          4.0950     0.0790    -2.3480 cd         1 P71      -0.019000
     12 C14          3.4240     0.4040    -3.5540 cd         1 P71       0.078100
     13 C16          4.1510     0.5840    -4.6860 cc         1 P71      -0.011200
     14 C17          3.4510     0.9320    -5.9750 c3         1 P71      -0.036900
     15 C19          6.1690     0.1500    -3.5290 cc         1 P71       0.031000
     16 C20          5.5030    -0.0420    -2.3670 cd         1 P71      -0.127200
     17 C21          6.2560    -0.3800    -1.1060 c3         1 P71       0.266600
     18 N11          2.0600     0.0010    -1.1490 nf         1 P71      -0.518300
     19 N18          5.5020     0.4560    -4.6700 na         1 P71      -0.598800
     20 O01         -0.6760     0.0010    -1.1720 o          1 P71      -0.861800
     21 O15          2.0710     0.5340    -3.5760 oh         1 P71      -0.467100
     22 O22          7.6550    -0.4430    -1.3880 os         1 P71      -0.596200
     23 O24          8.4240    -2.0670     0.3840 o          1 P71      -0.915167
     24 O25         10.2090    -0.8970    -0.9630 o          1 P71      -0.915167
     25 O26          8.7860     0.3900     0.8350 o          1 P71      -0.915167
     26 O27         -0.6110    -0.0050     1.0560 o          1 P71      -0.861800
     27 P23          8.7610    -0.7830    -0.2680 p5         1 P71       1.189900
     28 H042         1.5540    -0.4920     2.0660 hc         1 P71       0.058700
     29 H041         3.0860    -0.5300     1.1830 hc         1 P71       0.058700
     30 H061         4.2980     1.5180     0.6930 ha         1 P71       0.155500
     31 H071         4.7530     3.8420     1.3820 ha         1 P71       0.108500
     32 H081         3.1370     5.0450     2.8030 ha         1 P71       0.090000
     33 H091         1.0630     3.9270     3.5300 ha         1 P71       0.108500
     34 H101         0.6070     1.6040     2.8380 ha         1 P71       0.155500
     35 H121         3.8960    -0.3640    -0.2370 h4         1 P71       0.116000
     36 H172         2.8850     0.0750    -6.3210 hc         1 P71       0.029033
     37 H171         4.1850     1.2050    -6.7230 hc         1 P71       0.029033
     38 H173         2.7790     1.7650    -5.8080 hc         1 P71       0.029033
     39 H191         7.2480     0.0560    -3.5490 h4         1 P71       0.199000
     40 H212         6.0720     0.3840    -0.3600 h1         1 P71       0.031700
     41 H211         5.9200    -1.3390    -0.7310 h1         1 P71       0.031700
     42 H3           1.6870    -0.2360    -3.9600 ho         1 P71       0.402000
     43 H181         6.0180     0.5930    -5.5160 hn         1 P71       0.412800
@<TRIPOS>BOND
     1    26     1 1
     2    20     1 1
     3     1     2 1
     4    14    13 1
     5    21    12 1
     6    13    12 2
     7    13    19 1
     8    12    11 1
     9     2    18 2
    10     2     3 1
    11    18    10 1
    12     6     5 ar
    13     6     7 ar
    14     5     4 ar
    15    19    15 1
    16     7     8 ar
    17     4     3 1
    18     4     9 ar
    19    11    10 2
    20    11    16 1
    21     8     9 ar
    22    15    16 2
    23    16    17 1
    24    17    22 1
    25    22    27 1
    26    23    27 1
    27    27    24 1
    28    27    25 1
    29     3    28 1
    30     3    29 1
    31     5    30 1
    32     6    31 1
    33     7    32 1
    34     8    33 1
    35     9    34 1
    36    10    35 1
    37    14    36 1
    38    14    37 1
    39    14    38 1
    40    15    39 1
    41    17    40 1
    42    17    41 1
    43    21    42 1
    44    19    43 1
@<TRIPOS>SUBSTRUCTURE
     1 P71         1 TEMP              0 ****  ****    0 ROOT
