@<TRIPOS>MOLECULE
P71
   43    44     1     0     0
SMALL
bcc


@<TRIPOS>ATOM
      1 C02          0.0000     0.0000     0.0000 c          1 P71       0.897300
      2 C03          1.3960     0.0000     0.0000 ce         1 P71       0.244300
      3 C04          2.1490     0.0000     1.3060 c3         1 P71      -0.046400
      4 C05          2.4260     1.4200     1.7270 ca         1 P71      -0.038300
      5 C06          3.5880     2.0470     1.3170 ca         1 P71      -0.091500
      6 C07          3.8430     3.3500     1.7030 ca         1 P71      -0.122500
      7 C08          2.9360     4.0250     2.4990 ca         1 P71      -0.153000
      8 C09          1.7740     3.3980     2.9080 ca         1 P71      -0.122500
      9 C10          1.5180     2.0960     2.5180 ca         1 P71      -0.091500
     10 C12          3.3720    -0.1150    -1.1520 cf         1 P71      -0.130400
     11 C13          4.0950     0.0790    -2.3480 cc         1 P71      -0.016000
     12 C14          3.4240     0.4040    -3.5540 cc         1 P71       0.098100
     13 C16          4.1510     0.5840    -4.6860 cd         1 P71      -0.226200
     14 C17          3.4510     0.9320    -5.9750 c3         1 P71       0.090100
     15 C19          6.1690     0.1500    -3.5290 cd         1 P71      -0.161000
     16 C20          5.5030    -0.0420    -2.3670 cc         1 P71      -0.103200
     17 C21          6.2560    -0.3800    -1.1060 c3         1 P71       0.332600
     18 N11          2.0600     0.0010    -1.1490 nf         1 P71      -0.379300
     19 N18          5.5020     0.4560    -4.6700 na         1 P71      -0.067800
     20 O01         -0.6760     0.0010    -1.1720 o          1 P71      -0.919300
     21 O15          2.0710     0.5340    -3.5760 oh         1 P71      -0.445100
     22 O22          7.6550    -0.4430    -1.3880 os         1 P71      -0.487200
     23 O24          8.4240    -2.0670     0.3840 o          1 P71      -0.758833
     24 O25         10.2090    -0.8970    -0.9630 o          1 P71      -0.758833
     25 O26          8.7860     0.3900     0.8350 o          1 P71      -0.758833
     26 O27         -0.6110    -0.0050     1.0560 o          1 P71      -0.919300
     27 P23          8.7610    -0.7830    -0.2680 p5         1 P71       0.672900
     28 H042         1.5540    -0.4920     2.0660 hc         1 P71       0.031200
     29 H041         3.0860    -0.5300     1.1830 hc         1 P71       0.031200
     30 H061         4.2980     1.5180     0.6930 ha         1 P71       0.136000
     31 H071         4.7530     3.8420     1.3820 ha         1 P71       0.085500
     32 H081         3.1370     5.0450     2.8030 ha         1 P71       0.071000
     33 H091         1.0630     3.9270     3.5300 ha         1 P71       0.085500
     34 H101         0.6070     1.6040     2.8380 ha         1 P71       0.136000
     35 H121         3.8960    -0.3640    -0.2370 h4         1 P71       0.128000
     36 H172         2.8850     0.0750    -6.3210 hc         1 P71      -0.008300
     37 H171         4.1850     1.2050    -6.7230 hc         1 P71      -0.008300
     38 H173         2.7790     1.7650    -5.8080 hc         1 P71      -0.008300
     39 H191         7.2480     0.0560    -3.5490 h4         1 P71       0.178000
     40 H212         6.0720     0.3840    -0.3600 h1         1 P71      -0.008800
     41 H211         5.9200    -1.3390    -0.7310 h1         1 P71      -0.008800
     42 H3           1.6870    -0.2360    -3.9600 ho         1 P71       0.385000
     43 H181         6.0180     0.5930    -5.5160 hn         1 P71       0.235800
@<TRIPOS>BOND
     1     1     2 1   
     2     1    20 1   
     3     1    26 1   
     4     2     3 1   
     5     2    18 2   
     6     3     4 1   
     7     3    28 1   
     8     3    29 1   
     9     4     5 ar  
    10     4     9 ar  
    11     5     6 ar  
    12     5    30 1   
    13     6     7 ar  
    14     6    31 1   
    15     7     8 ar  
    16     7    32 1   
    17     8     9 ar  
    18     8    33 1   
    19     9    34 1   
    20    10    11 2   
    21    10    18 1   
    22    10    35 1   
    23    11    12 1   
    24    11    16 1   
    25    12    13 2   
    26    12    21 1   
    27    13    14 1   
    28    13    19 1   
    29    14    36 1   
    30    14    37 1   
    31    14    38 1   
    32    15    16 2   
    33    15    19 1   
    34    15    39 1   
    35    16    17 1   
    36    17    22 1   
    37    17    40 1   
    38    17    41 1   
    39    19    43 1   
    40    21    42 1   
    41    22    27 1   
    42    23    27 1   
    43    24    27 1   
    44    25    27 1   
@<TRIPOS>SUBSTRUCTURE
     1 P71         1 TEMP              0 ****  ****    0 ROOT
