@<TRIPOS>MOLECULE
molecule
   67    68     1     0     0
SMALL
bcc


@<TRIPOS>ATOM
      1 C01          0.0000     0.0000     0.0000 ca         1 P74      -0.009000
      2 C04         -0.7180    -0.0010    -1.2390 cg         1 P74      -0.129000
      3 C05         -1.2920     0.0100    -2.2630 c1         1 P74      -0.172100
      4 C06         -2.6290     0.0700    -3.2610 c3         1 P74       0.207100
      5 N           -3.8270    -0.2350    -2.7450 ns         1 P74      -0.512900
      6 C1           0.0000     0.0080     2.4020 ca         1 P74      -0.113300
      7 N1          -0.7780     1.3810     4.2490 n3         1 P74      -0.633600
      8 O1           2.0680     0.0020     3.5750 oh         1 P74      -0.496100
      9 C02          1.3960     0.0000     0.0000 ca         1 P74      -0.067000
     10 C2          -0.7500     0.0150     3.7090 c3         1 P74       0.188100
     11 N2          -1.8100     5.1420     5.8530 n3         1 P74      -0.704600
     12 C03         -1.2890     1.3930     5.6260 c3         1 P74       0.110300
     13 C3          -0.6940     0.0070     1.2100 ca         1 P74      -0.085000
     14 C4           2.0830     0.0000     1.1960 ca         1 P74       0.034900
     15 C7           1.3870     0.0010     2.3990 ca         1 P74       0.173100
     16 C8          -1.1680     2.8040     6.2050 c3         1 P74      -0.116900
     17 C10         -1.9700     3.7770     5.3360 c3         1 P74       0.144500
     18 C11         -2.5680     6.1040     5.0410 c3         1 P74       0.109800
     19 C12         -2.1080     7.5260     5.3720 c3         1 P74      -0.103100
     20 C13         -2.2050     5.2210     7.2660 c3         1 P74       0.109800
     21 C14         -3.6440     4.7240     7.4220 c3         1 P74      -0.103100
     22 C15         -1.4510     3.7100     3.8970 c3         1 P74      -0.116900
     23 C16         -1.5630     2.2720     3.3850 c3         1 P74       0.110300
     24 I2           4.1780    -0.0000     1.1980 i          1 P74      -0.146900
     25 C07         -4.8810    -0.2980    -3.5000 c          1 P74       0.751100
     26 O01         -6.0680    -0.2720    -2.9320 os         1 P74      -0.477900
     27 C08         -7.2390    -0.6340    -4.0110 c3         1 P74       0.128800
     28 C09         -6.8560    -1.6810    -4.7610 c3         1 P74      -0.096433
     29 C17         -8.7860    -0.5070    -3.2090 c3         1 P74      -0.096433
     30 C           -7.3310     0.7700    -5.0130 c3         1 P74      -0.096433
     31 O           -4.7170    -0.3230    -4.7050 o          1 P74      -0.640000
     32 H02          1.8390    -0.2720    -0.9500 ha         1 P74       0.154000
     33 H3          -1.7650     0.0460     1.0490 ha         1 P74       0.141000
     34 H061        -2.1550     0.8020    -3.9050 h1         1 P74       0.076700
     35 H062        -2.2490    -0.8620    -3.6620 h1         1 P74       0.076700
     36 H           -3.9940    -0.2390    -1.7580 hn         1 P74       0.322500
     37 H21C        -1.7800     0.0580     3.3760 h1         1 P74       0.040700
     38 H22C        -0.8790    -0.9540     4.1760 h1         1 P74       0.040700
     39 H031        -2.3060     1.4080     5.9970 h1         1 P74       0.052450
     40 H032        -0.6970     1.1920     6.5110 h1         1 P74       0.052450
     41 H161        -1.2680     2.2800     2.3430 h1         1 P74       0.052450
     42 H162        -2.6420     2.1880     3.4160 h1         1 P74       0.052450
     43 H1           1.9090    -0.7900     4.0610 ho         1 P74       0.427000
     44 H10         -3.0170     3.4980     5.3550 h1         1 P74       0.012700
     45 H111        -2.2930     5.7250     4.0640 h1         1 P74       0.038450
     46 H112        -3.6230     5.9630     4.8400 h1         1 P74       0.038450
     47 H131        -1.4100     4.8610     7.9080 h1         1 P74       0.038450
     48 H132        -1.8450     6.2160     7.4960 h1         1 P74       0.038450
     49 H81C        -1.5820     2.5240     7.1660 hc         1 P74       0.076450
     50 H82C        -0.0890     2.8940     6.1590 hc         1 P74       0.076450
     51 H151        -2.0890     4.2570     3.2130 hc         1 P74       0.076450
     52 H152        -0.4810     3.8900     4.3440 hc         1 P74       0.076450
     53 H121        -1.0850     7.8440     5.2110 hc         1 P74       0.052367
     54 H122        -2.3760     8.0670     4.4730 hc         1 P74       0.052367
     55 H123        -2.6590     7.9740     6.1900 hc         1 P74       0.052367
     56 H141        -4.1670     5.1280     6.5640 hc         1 P74       0.052367
     57 H142        -3.1460     3.7620     7.4360 hc         1 P74       0.052367
     58 H143        -3.6630     4.8660     8.4960 hc         1 P74       0.052367
     59 H091        -6.9010    -2.6330    -4.2450 hc         1 P74       0.063811
     60 H092        -7.7640    -1.8470    -5.3280 hc         1 P74       0.063811
     61 H093        -5.8950    -1.7070    -5.2610 hc         1 P74       0.063811
     62 H171        -8.7810     0.5200    -2.8650 hc         1 P74       0.063811
     63 H172        -9.4730    -0.6470    -4.0350 hc         1 P74       0.063811
     64 H173        -8.6260    -1.3040    -2.4920 hc         1 P74       0.063811
     65 HC1         -6.3330     0.8840    -5.4190 hc         1 P74       0.063811
     66 HC2         -8.2730     0.5990    -5.5200 hc         1 P74       0.063811
     67 HC3         -7.4320     1.4800    -4.2020 hc         1 P74       0.063811
@<TRIPOS>BOND
     1     1     2 1
     2     1     9 ar
     3     1    13 ar
     4     2     3 3
     5     3     4 1
     6     4     5 1
     7     5    25 1
     8     6    10 1
     9     6    13 ar
    10     6    15 ar
    11     7    10 1
    12     7    12 1
    13     7    23 1
    14     8    15 1
    15     9    14 ar
    16    11    17 1
    17    11    18 1
    18    11    20 1
    19    12    16 1
    20    14    15 ar
    21    14    24 1
    22    16    17 1
    23    17    22 1
    24    18    19 1
    25    20    21 1
    26    22    23 1
    27    25    26 1
    28    25    31 2
    29    26    27 1
    30    27    28 1
    31    27    29 1
    32    27    30 1
    33     9    32 1
    34    13    33 1
    35     4    34 1
    36     4    35 1
    37     5    36 1
    38    10    37 1
    39    10    38 1
    40    12    39 1
    41    12    40 1
    42    23    41 1
    43    23    42 1
    44     8    43 1
    45    17    44 1
    46    18    45 1
    47    18    46 1
    48    20    47 1
    49    20    48 1
    50    16    49 1
    51    16    50 1
    52    22    51 1
    53    22    52 1
    54    19    53 1
    55    19    54 1
    56    19    55 1
    57    21    56 1
    58    21    57 1
    59    21    58 1
    60    28    59 1
    61    28    60 1
    62    28    61 1
    63    29    62 1
    64    29    63 1
    65    29    64 1
    66    30    65 1
    67    30    66 1
    68    30    67 1
@<TRIPOS>SUBSTRUCTURE
     1 P74         1 TEMP              0 ****  ****    0 ROOT
