@<TRIPOS>MOLECULE
molecule
   58    60     1     0     0
SMALL
bcc


@<TRIPOS>ATOM
      1 N1           0.0000     0.0000     0.0000 ns         1 P76      -0.614900
      2 C2           1.4640     0.0000     0.0000 c3         1 P76       0.004700
      3 C3           1.9670     0.0000     1.4210 c          1 P76       0.620100
      4 O4           1.2780     0.4600     2.3070 o          1 P76      -0.549100
      5 N5           3.1810    -0.5090     1.7070 ns         1 P76      -0.344400
      6 O6           3.6940    -0.4200     3.0230 oh         1 P76      -0.461100
      7 C7          -0.6750    -0.4940    -1.0580 c          1 P76       0.798100
      8 O8          -0.0690    -0.8550    -2.0490 o          1 P76      -0.627100
      9 N9          -2.0180    -0.5870    -1.0170 n          1 P76      -0.405800
     10 C10         -2.7710    -0.0530     0.1260 c3         1 P76      -0.046500
     11 C11         -3.8470     0.9040    -0.3960 c3         1 P76      -0.144400
     12 C12         -4.7090     0.1810    -1.4330 c3         1 P76       0.005600
     13 C13         -3.8340    -0.2530    -2.6120 c3         1 P76      -0.144400
     14 C14         -2.7590    -1.2170    -2.1180 c3         1 P76      -0.046500
     15 C15         -5.7900     1.1080    -1.9240 ca         1 P76      -0.112300
     16 C16         -7.1200     0.7670    -1.7540 ca         1 P76      -0.094000
     17 C17         -8.1150     1.6100    -2.2010 ca         1 P76      -0.124500
     18 C18         -7.7770     2.8140    -2.8270 ca         1 P76       0.011000
     19 C19         -6.4310     3.1520    -2.9940 ca         1 P76      -0.124500
     20 C20         -5.4480     2.3000    -2.5370 ca         1 P76      -0.094000
     21 C21         -8.8040     3.6950    -3.2930 cg         1 P76      -0.135000
     22 C22         -9.6510     4.4240    -3.6560 ch         1 P76      -0.104000
     23 C23        -10.5910     5.6270    -4.0190 ca         1 P76       0.027000
     24 C24        -10.4070     6.8200    -3.8000 ca         1 P76      -0.119500
     25 C25        -11.7340     7.4580    -4.4210 ca         1 P76      -0.115500
     26 C26        -12.7780     7.0140    -5.0080 ca         1 P76      -0.088000
     27 C27        -12.7730     5.8910    -5.1220 ca         1 P76      -0.115500
     28 C28        -11.9950     5.1000    -4.8000 ca         1 P76      -0.119500
     29 C29          1.9750     1.2480    -0.7210 c3         1 P76       0.161100
     30 C30          3.5000     1.1840    -0.8350 c3         1 P76      -0.082100
     31 O31          1.4020     1.3100    -2.0300 oh         1 P76      -0.597800
     32 HN1         -0.2310     0.4600     0.8580 hn         1 P76       0.346500
     33 H2           1.8250    -0.8850    -0.5100 h1         1 P76       0.106700
     34 HN5          3.2780    -1.4880     1.8920 hn         1 P76       0.286500
     35 HO6          4.4080    -1.0330     3.0810 ho         1 P76       0.413000
     36 H10         -1.8750     0.2720     0.6410 h1         1 P76       0.100450
     37 H10A        -3.2760     0.8880     0.3070 h1         1 P76       0.100450
     38 H11         -4.4060     0.4230    -1.1900 hc         1 P76       0.067950
     39 H11A        -4.4750     1.2260     0.4250 hc         1 P76       0.067950
     40 H12         -5.1570    -0.6940    -0.9780 hc         1 P76       0.063700
     41 H13         -4.5160    -0.5120    -3.4130 hc         1 P76       0.067950
     42 H13A        -3.0490    -0.9770    -2.4310 hc         1 P76       0.067950
     43 H14         -3.3610    -0.3630    -2.4030 h1         1 P76       0.100450
     44 H14A        -1.9690    -1.5940    -2.7560 h1         1 P76       0.100450
     45 H16         -7.1630    -0.0300    -1.0210 ha         1 P76       0.145500
     46 H17         -9.1320     1.9830    -2.2050 ha         1 P76       0.162000
     47 H19         -6.0490     4.1190    -3.2960 ha         1 P76       0.162000
     48 H20         -4.4720     2.7690    -2.4870 ha         1 P76       0.145500
     49 H24         -9.8890     7.1870    -2.9230 ha         1 P76       0.156000
     50 H25        -11.5360     8.4520    -4.0380 ha         1 P76       0.110500
     51 H26        -13.2910     7.8140    -5.5290 ha         1 P76       0.145000
     52 H27        -13.5990     5.3190    -5.5280 ha         1 P76       0.110500
     53 H28        -12.0310     4.0170    -4.8030 ha         1 P76       0.156000
     54 H29          1.6920     2.1310    -0.1610 h1         1 P76       0.035700
     55 H30          3.9510     0.2010    -0.8970 hc         1 P76       0.050700
     56 H30A         3.9450     2.1330    -1.1110 hc         1 P76       0.050700
     57 H30B         3.5500     1.3210     0.2380 hc         1 P76       0.050700
     58 HO31         0.4620     1.3750    -2.0460 ho         1 P76       0.412000
@<TRIPOS>BOND
     1     1     7 1
     2     1     2 1
     3     1    32 1
     4    29     2 1
     5     2     3 1
     6     2    33 1
     7     4     3 2
     8     3     5 1
     9     5     6 1
    10     5    34 1
    11     6    35 1
    12     9     7 1
    13     7     8 2
    14    10     9 1
    15     9    14 1
    16    11    10 1
    17    10    36 1
    18    10    37 1
    19    11    12 1
    20    11    38 1
    21    11    39 1
    22    15    12 1
    23    12    13 1
    24    12    40 1
    25    13    14 1
    26    13    41 1
    27    13    42 1
    28    14    43 1
    29    14    44 1
    30    20    15 ar
    31    16    15 ar
    32    17    16 ar
    33    16    45 1
    34    18    17 ar
    35    17    46 1
    36    21    18 1
    37    19    18 ar
    38    19    20 ar
    39    19    47 1
    40    20    48 1
    41    22    21 3
    42    23    22 1
    43    28    23 ar
    44    24    23 ar
    45    25    24 ar
    46    24    49 1
    47    26    25 ar
    48    25    50 1
    49    26    27 ar
    50    26    51 1
    51    27    28 ar
    52    27    52 1
    53    28    53 1
    54    30    29 1
    55    29    31 1
    56    29    54 1
    57    30    55 1
    58    30    56 1
    59    30    57 1
    60    31    58 1
@<TRIPOS>SUBSTRUCTURE
     1 P76         1 TEMP              0 ****  ****    0 ROOT
