@<TRIPOS>MOLECULE
P77
   49    52     1     0     0
SMALL
bcc


@<TRIPOS>ATOM
      1 S            0.0000     0.0000     0.0000 ss         1 P77      -0.353800
      2 Cl           6.2680     0.0110    -0.0720 cl         1 P77      -0.024400
      3 C1           4.5320     0.0050    -0.0440 ca         1 P77       0.007400
      4 N1           1.8290    -0.0050     2.4330 na         1 P77       0.217900
      5 C2           3.8230    -0.0010    -1.2320 ca         1 P77      -0.133000
      6 N2           4.8610     1.1020     6.1100 n3         1 P77      -0.543600
      7 C3           2.4400    -0.0020    -1.2100 ca         1 P77      -0.023000
      8 N3           5.6980     2.6990     8.3140 n3         1 P77      -0.550600
      9 C4           1.7600     0.0000     0.0000 ca         1 P77       0.049900
     10 C5           2.4710     0.0000     1.1970 ca         1 P77      -0.043300
     11 C6           3.8610     0.0050     1.1650 ca         1 P77      -0.174000
     12 C7          -0.4080     0.5230     1.6310 ca         1 P77       0.052900
     13 C8          -1.6870     0.9960     1.8940 ca         1 P77      -0.032000
     14 C9          -2.0250     1.4110     3.1690 ca         1 P77      -0.131000
     15 C10         -1.0900     1.3570     4.1850 ca         1 P77      -0.058000
     16 C11          0.1850     0.8880     3.9300 ca         1 P77      -0.171000
     17 C12          0.5360     0.4660     2.6520 ca         1 P77      -0.054300
     18 C13          2.5630    -0.5430     3.5810 c3         1 P77      -0.034700
     19 C14          3.3440     0.5830     4.2600 c3         1 P77      -0.086400
     20 C15          4.1120     0.0210     5.4580 c3         1 P77       0.159800
     21 C16          3.9510     2.0860     6.7120 c3         1 P77       0.149300
     22 C17          4.7670     3.2350     7.3100 c3         1 P77       0.155300
     23 C18          6.6090     1.7150     7.7120 c3         1 P77       0.155300
     24 C19          5.7920     0.5670     7.1150 c3         1 P77       0.149300
     25 C20          6.4490     3.7810     8.9660 c3         1 P77       0.189100
     26 H2           4.3500     0.0410    -2.1770 ha         1 P77       0.120000
     27 H3           1.8860    -0.0060    -2.1410 ha         1 P77       0.118000
     28 H6           4.4210     0.0080     2.0920 ha         1 P77       0.140000
     29 H8          -2.4210     1.0390     1.0990 ha         1 P77       0.116000
     30 H9          -3.0240     1.7800     3.3710 ha         1 P77       0.108000
     31 H10         -1.3570     1.6830     5.1830 ha         1 P77       0.103000
     32 H11          0.9140     0.8470     4.7300 ha         1 P77       0.125000
     33 H13          1.8640    -0.9750     4.2870 h1         1 P77       0.036200
     34 H13A         3.2520    -1.3080     3.2430 h1         1 P77       0.036200
     35 H14          2.6540     1.3470     4.5980 hc         1 P77       0.041700
     36 H14A         4.0430     1.0150     3.5530 hc         1 P77       0.041700
     37 H15          3.4130    -0.4110     6.1650 h1         1 P77       0.009700
     38 H15A         4.8010    -0.7430     5.1200 h1         1 P77       0.009700
     39 H16          3.3720     1.6110     7.4940 h1         1 P77       0.015700
     40 H16A         3.2870     2.4760     5.9500 h1         1 P77       0.015700
     41 H17          4.0990     3.9450     7.7820 h1         1 P77       0.014450
     42 H17A         5.3290     3.7250     6.5240 h1         1 P77       0.014450
     43 H18          7.1870     2.1910     6.9290 h1         1 P77       0.014450
     44 H18A         7.2730     1.3260     8.4740 h1         1 P77       0.014450
     45 H19          6.4610    -0.1430     6.6440 h1         1 P77       0.015700
     46 H19A         5.2310     0.0770     7.9010 h1         1 P77       0.015700
     47 H20          7.0430     4.3050     8.2270 h1         1 P77       0.000700
     48 H20A         5.7560     4.4730     9.4290 h1         1 P77       0.000700
     49 H20B         7.1010     3.3620     9.7230 h1         1 P77       0.000700
@<TRIPOS>BOND
     1     1     9 1   
     2     1    12 1   
     3     2     3 1   
     4     3     5 ar  
     5     3    11 ar  
     6     4    10 1   
     7     4    17 1   
     8     4    18 1   
     9     5     7 ar  
    10     5    26 1   
    11     6    20 1   
    12     6    21 1   
    13     6    24 1   
    14     7     9 ar  
    15     7    27 1   
    16     8    22 1   
    17     8    23 1   
    18     8    25 1   
    19     9    10 ar  
    20    10    11 ar  
    21    11    28 1   
    22    12    13 ar  
    23    12    17 ar  
    24    13    14 ar  
    25    13    29 1   
    26    14    15 ar  
    27    14    30 1   
    28    15    16 ar  
    29    15    31 1   
    30    16    17 ar  
    31    16    32 1   
    32    18    19 1   
    33    18    33 1   
    34    18    34 1   
    35    19    20 1   
    36    19    35 1   
    37    19    36 1   
    38    20    37 1   
    39    20    38 1   
    40    21    22 1   
    41    21    39 1   
    42    21    40 1   
    43    22    41 1   
    44    22    42 1   
    45    23    24 1   
    46    23    43 1   
    47    23    44 1   
    48    24    45 1   
    49    24    46 1   
    50    25    47 1   
    51    25    48 1   
    52    25    49 1   
@<TRIPOS>SUBSTRUCTURE
     1 P77         1 TEMP              0 ****  ****    0 ROOT
