@<TRIPOS>MOLECULE
molecule
   60    63     1     0     0
SMALL
bcc


@<TRIPOS>ATOM
      1 C1           0.0000     0.0000     0.0000 cc         1 P78      -0.091400
      2 O1          -3.0570    -3.0320     5.5180 o          1 P78      -0.611300
      3 S1          -3.3660    -1.7760     4.9300 s6         1 P78       1.101000
      4 C2          10.0520    -1.0860     2.2210 ca         1 P78      -0.121000
      5 S2           1.7540     0.0000     0.0000 ss         1 P78       0.056200
      6 C3           1.8300     0.0000     1.7020 cc         1 P78       0.133500
      7 C4           0.5700    -0.0020     2.2440 cd         1 P78      -0.273600
      8 C5          -0.4720    -0.0020     1.2390 cd         1 P78      -0.119000
      9 C6          -0.8560     0.0050    -1.2410 c3         1 P78       0.012300
     10 C7          -1.7390     1.2550    -1.2450 c3         1 P78      -0.083100
     11 C8           0.0420     0.0120    -2.4790 c3         1 P78      -0.083100
     12 C9          -1.7390    -1.2440    -1.2560 c3         1 P78      -0.083100
     13 C10          0.3050    -0.0030     3.6860 c          1 P78       0.709700
     14 C11         10.2430     0.4640    -0.0980 ca         1 P78      -0.110000
     15 O11          0.8670     0.8000     4.4080 o          1 P78      -0.617100
     16 C12         11.3300    -0.1820     0.4050 ca         1 P78      -0.130000
     17 N12          3.0040    -0.0010     2.4400 ns         1 P78      -0.441100
     18 C13          4.1960     0.0010     1.8100 c          1 P78       0.777100
     19 C14         11.2350    -0.9550     1.5620 ca         1 P78      -0.120000
     20 O14          4.2400     0.0010     0.5950 o          1 P78      -0.629100
     21 N15          5.3360     0.0000     2.5270 ns         1 P78      -0.479100
     22 C16          6.5710     0.1100     1.8770 ca         1 P78       0.074600
     23 C17          6.6750     0.8840     0.7160 ca         1 P78      -0.123000
     24 C18          7.8610     1.0080     0.0640 ca         1 P78      -0.099000
     25 C19          9.0040     0.3540     0.5560 ca         1 P78      -0.047000
     26 C20          8.9060    -0.4330     1.7320 ca         1 P78      -0.017000
     27 C21          7.6690    -0.5450     2.3870 ca         1 P78      -0.155000
     28 N26         -0.5590    -0.8930     4.2110 n          1 P78      -0.501800
     29 C27         -0.9090    -0.8120     5.6300 c3         1 P78       0.116000
     30 C28         -2.3990    -0.4890     5.7720 c3         1 P78      -0.224100
     31 C31         -2.6540    -1.7240     3.2600 c3         1 P78      -0.224100
     32 C32         -1.1390    -1.9300     3.3580 c3         1 P78       0.116000
     33 H2           9.9930    -1.6890     3.1180 ha         1 P78       0.132000
     34 H5          -1.5290    -0.0020     1.4750 ha         1 P78       0.150000
     35 H7          -2.4960     1.1650    -0.4750 hc         1 P78       0.039700
     36 H7A         -2.2180     1.3550    -2.2120 hc         1 P78       0.039700
     37 H7B         -1.1300     2.1290    -1.0520 hc         1 P78       0.039700
     38 H8          -0.5720     0.0200    -3.3710 hc         1 P78       0.039700
     39 H8A          0.6700     0.8950    -2.4650 hc         1 P78       0.039700
     40 H8B          0.6660    -0.8740    -2.4780 hc         1 P78       0.039700
     41 H9          -2.5450    -1.1260    -0.5420 hc         1 P78       0.039700
     42 H9A         -1.1450    -2.1100    -0.9900 hc         1 P78       0.039700
     43 H9B         -2.1530    -1.3810    -2.2480 hc         1 P78       0.039700
     44 H11         10.3330     1.0610    -0.9970 ha         1 P78       0.133000
     45 H12         12.2840    -0.0940    -0.1010 ha         1 P78       0.129000
     46 HN12         2.9660    -0.0130     3.4400 hn         1 P78       0.346500
     47 H14         12.1160    -1.4590     1.9410 ha         1 P78       0.129000
     48 HN15         5.2990    -0.0490     3.5260 hn         1 P78       0.326500
     49 H17          5.8000     1.3970     0.3360 ha         1 P78       0.161000
     50 H18          7.9260     1.6110    -0.8340 ha         1 P78       0.139000
     51 H21          7.6100    -1.0320     3.3520 ha         1 P78       0.133000
     52 H27         -0.3250    -0.0310     6.1000 h1         1 P78       0.081700
     53 H27A        -0.7010    -1.7630     6.1060 h1         1 P78       0.081700
     54 H28         -2.6050     0.4730     5.3170 h1         1 P78       0.109700
     55 H28A        -2.6660    -0.4650     6.8210 h1         1 P78       0.109700
     56 H31         -2.8600    -0.7610     2.8090 h1         1 P78       0.109700
     57 H31A        -3.0880    -2.5130     2.6570 h1         1 P78       0.109700
     58 H32         -0.9360    -2.9040     3.7860 h1         1 P78       0.081700
     59 H32A        -0.7030    -1.8680     2.3680 h1         1 P78       0.081700
     60 O33         -4.7220    -1.3550     4.8620 o          1 P78      -0.611300
@<TRIPOS>BOND
     1     1     5 1
     2     1     8 2
     3     1     9 1
     4     2     3 2
     5     3    30 1
     6     3    31 1
     7     3    60 2
     8     4    19 ar
     9     4    26 ar
    10     5     6 1
    11     6     7 2
    12     6    17 1
    13     7     8 1
    14     7    13 1
    15     9    10 1
    16     9    11 1
    17     9    12 1
    18    13    15 2
    19    13    28 1
    20    14    16 ar
    21    14    25 ar
    22    16    19 ar
    23    17    18 1
    24    18    20 2
    25    18    21 1
    26    21    22 1
    27    22    23 ar
    28    22    27 ar
    29    23    24 ar
    30    24    25 ar
    31    25    26 ar
    32    26    27 ar
    33    28    29 1
    34    28    32 1
    35    29    30 1
    36    31    32 1
    37     4    33 1
    38     8    34 1
    39    10    35 1
    40    10    36 1
    41    10    37 1
    42    11    38 1
    43    11    39 1
    44    11    40 1
    45    12    41 1
    46    12    42 1
    47    12    43 1
    48    14    44 1
    49    16    45 1
    50    17    46 1
    51    19    47 1
    52    21    48 1
    53    23    49 1
    54    24    50 1
    55    27    51 1
    56    29    52 1
    57    29    53 1
    58    30    54 1
    59    30    55 1
    60    31    56 1
    61    31    57 1
    62    32    58 1
    63    32    59 1
@<TRIPOS>SUBSTRUCTURE
     1 P78         1 TEMP              0 ****  ****    0 ROOT
