@<TRIPOS>MOLECULE
P79
   63    66     1     0     0
SMALL
bcc


@<TRIPOS>ATOM
      1 C1           0.0000     0.0000     0.0000 cc         1 P79      -0.329300
      2 C2           1.3970     0.0000     0.0000 cc         1 P79       0.394600
      3 N3           0.6860     0.0010     2.0790 na         1 P79       0.467400
      4 N4           1.8090     0.0000     1.2420 nd         1 P79      -0.639800
      5 C5           2.2800    -0.0010    -1.2220 c3         1 P79      -0.080300
      6 C6          -0.4170     0.0000     1.2960 cd         1 P79      -0.221700
      7 C7           0.7030     0.0000     3.5440 c3         1 P79      -0.075700
      8 C8           0.7080     1.4220     4.0460 c          1 P79       0.564100
      9 N9           0.7240     1.6690     5.3710 n          1 P79      -0.180800
     10 O10          0.6990     2.3430     3.2580 o          1 P79      -0.603100
     11 C11         -2.7480    -0.0000     0.8420 c          1 P79       0.553100
     12 N12         -4.0270    -0.0000     1.2670 ns         1 P79      -0.049100
     13 O13         -2.5030    -0.0020    -0.3490 o          1 P79      -0.662100
     14 C14         -5.0710     0.1120     0.3430 ca         1 P79      -0.091400
     15 C15         -6.2810    -0.5500     0.5830 ca         1 P79      -0.124000
     16 C16         -7.3130    -0.4590    -0.2970 ca         1 P79      -0.070000
     17 C17         -7.1710     0.3070    -1.4670 ca         1 P79      -0.046000
     18 C18         -5.9490     0.9820    -1.7170 ca         1 P79      -0.021000
     19 C19         -4.9000     0.8760    -0.7890 ca         1 P79      -0.074000
     20 N20         -1.7400     0.0000     1.7370 ns         1 P79      -0.010100
     21 C21          2.2750     1.3920    -1.8540 c3         1 P79       0.006900
     22 C22          3.7080    -0.3740    -0.8190 c3         1 P79       0.006900
     23 C23          1.7510    -1.0220    -2.2320 c3         1 P79       0.006900
     24 C24         -8.2200     0.4190    -2.3950 ca         1 P79      -0.088000
     25 C25         -8.0500     1.1690    -3.5180 ca         1 P79      -0.100000
     26 C26         -6.8490     1.8320    -3.7640 ca         1 P79      -0.099000
     27 C27         -5.8110     1.7480    -2.8890 ca         1 P79      -0.083000
     28 C28          0.7280     3.0520     5.8520 c3         1 P79       0.072500
     29 C29         -0.5640     3.3290     6.6250 c3         1 P79      -0.030100
     30 S30         -0.6870     2.1570     8.0070 s6         1 P79       0.796000
     31 C31         -0.5580     0.5660     7.1400 c3         1 P79      -0.030100
     32 C32          0.7290     0.5510     6.3170 c3         1 P79       0.072500
     33 O33         -1.9860     2.2590     8.5750 o          1 P79      -0.574800
     34 O34          0.4530     2.3150     8.8410 o          1 P79      -0.574800
     35 H1          -0.6380    -0.0000    -0.8760 ha         1 P79       0.193000
     36 H7           1.5910    -0.5100     3.8950 h1         1 P79       0.045700
     37 H7A         -0.1770    -0.5110     3.9160 h1         1 P79       0.045700
     38 HN12        -4.2290    -0.0520     2.2460 hn         1 P79       0.156500
     39 H15         -6.3970    -1.1430     1.4820 ha         1 P79       0.101000
     40 H16         -8.2430    -0.9770    -0.0980 ha         1 P79       0.106000
     41 H19         -4.0170     1.4930    -0.8970 ha         1 P79       0.138000
     42 HN20        -1.9400    -0.0350     2.7170 hn         1 P79       0.145500
     43 H21          2.9290     1.3980    -2.7180 hc         1 P79       0.007589
     44 H21A         2.6260     2.1180    -1.1310 hc         1 P79       0.007589
     45 H21B         1.2680     1.6460    -2.1610 hc         1 P79       0.007589
     46 H22          4.3380    -0.3930    -1.7000 hc         1 P79       0.007589
     47 H22A         4.0880     0.3590    -0.1180 hc         1 P79       0.007589
     48 H22B         3.7080    -1.3530    -0.3540 hc         1 P79       0.007589
     49 H23          2.4880    -1.1750    -3.0100 hc         1 P79       0.007589
     50 H23A         0.8330    -0.6510    -2.6720 hc         1 P79       0.007589
     51 H23B         1.5560    -1.9610    -1.7280 hc         1 P79       0.007589
     52 H24         -9.1590    -0.0900    -2.2180 ha         1 P79       0.104000
     53 H25         -8.8620     1.2530    -4.2310 ha         1 P79       0.100000
     54 H26         -6.7410     2.4230    -4.6660 ha         1 P79       0.101000
     55 H27         -4.8830     2.2680    -3.0920 ha         1 P79       0.110000
     56 H28          1.5780     3.2030     6.5060 h1         1 P79       0.047950
     57 H28A         0.7930     3.7260     5.0060 h1         1 P79       0.047950
     58 H29         -1.4140     3.2020     5.9660 h1         1 P79       0.076700
     59 H29A        -0.5450     4.3420     7.0100 h1         1 P79       0.076700
     60 H31         -1.4090     0.4430     6.4810 h1         1 P79       0.076700
     61 H31A        -0.5330    -0.2400     7.8640 h1         1 P79       0.076700
     62 H32          1.5800     0.6460     6.9800 h1         1 P79       0.047950
     63 H32A         0.7940    -0.3820     5.7700 h1         1 P79       0.047950
@<TRIPOS>BOND
     1     1     2 1   
     2     1     6 2   
     3     1    35 1   
     4     2     4 2   
     5     2     5 1   
     6     3     4 1   
     7     3     6 1   
     8     3     7 1   
     9     5    21 1   
    10     5    22 1   
    11     5    23 1   
    12     6    20 1   
    13     7     8 1   
    14     7    36 1   
    15     7    37 1   
    16     8     9 1   
    17     8    10 2   
    18     9    28 1   
    19     9    32 1   
    20    11    12 1   
    21    11    13 2   
    22    11    20 1   
    23    12    14 1   
    24    12    38 1   
    25    14    15 ar  
    26    14    19 ar  
    27    15    16 ar  
    28    15    39 1   
    29    16    17 ar  
    30    16    40 1   
    31    17    18 ar  
    32    17    24 ar  
    33    18    19 ar  
    34    18    27 ar  
    35    19    41 1   
    36    20    42 1   
    37    21    43 1   
    38    21    44 1   
    39    21    45 1   
    40    22    46 1   
    41    22    47 1   
    42    22    48 1   
    43    23    49 1   
    44    23    50 1   
    45    23    51 1   
    46    24    25 ar  
    47    24    52 1   
    48    25    26 ar  
    49    25    53 1   
    50    26    27 ar  
    51    26    54 1   
    52    27    55 1   
    53    28    29 1   
    54    28    56 1   
    55    28    57 1   
    56    29    30 1   
    57    29    58 1   
    58    29    59 1   
    59    30    31 1   
    60    30    33 2   
    61    30    34 2   
    62    31    32 1   
    63    31    60 1   
    64    31    61 1   
    65    32    62 1   
    66    32    63 1   
@<TRIPOS>SUBSTRUCTURE
     1 P79         1 TEMP              0 ****  ****    0 ROOT
