@<TRIPOS>MOLECULE
molecule
   58    61     1     0     0
SMALL
bcc


@<TRIPOS>ATOM
      1 C1           0.0000     0.0000     0.0000 c          1 P7A       0.785100
      2 N1          -1.9140     0.3650    -3.7800 nh         1 P7A      -0.583000
      3 O1           1.2160     0.0000     0.0000 o          1 P7A      -0.640100
      4 S1           0.6250    -0.1660    -4.8620 ss         1 P7A      -0.176800
      5 C2          -0.5620     0.0580    -3.5830 cc         1 P7A       0.066500
      6 N2          -0.6740     0.0000     1.1660 ns         1 P7A      -0.479100
      7 S2          -4.5250     1.7110    -4.7170 s6         1 P7A       1.097000
      8 C3           0.0190    -0.0990     2.3740 ca         1 P7A       0.066600
      9 O3          -4.0540     2.7850    -5.5190 o          1 P7A      -0.610300
     10 C4          -0.5970    -0.6790     3.5040 ca         1 P7A      -0.052000
     11 C5           0.1260    -0.7690     4.7190 ca         1 P7A      -0.020000
     12 C6           1.4430    -0.2830     4.7770 ca         1 P7A      -0.137000
     13 C7           2.0130     0.2710     3.6720 ca         1 P7A      -0.106000
     14 C8           1.3150     0.3610     2.4710 ca         1 P7A      -0.139000
     15 N9          -0.6730     0.0060    -1.1680 ns         1 P7A      -0.468100
     16 C10          0.0290    -0.1110    -2.3880 cd         1 P7A       0.056600
     17 C13          1.8870    -0.4850    -3.6810 cc         1 P7A       0.001600
     18 C14          1.3830    -0.4110    -2.4490 cd         1 P7A      -0.158000
     19 C16          3.3250    -0.7950    -4.0110 c3         1 P7A       0.009300
     20 C17          3.6880    -2.1750    -3.4580 c3         1 P7A      -0.083433
     21 C18          3.5130    -0.7890    -5.5300 c3         1 P7A      -0.083433
     22 C19          4.2330     0.2620    -3.3800 c3         1 P7A      -0.083433
     23 C20         -2.2790     0.2410    -5.1940 c3         1 P7A       0.171800
     24 C21         -3.8030     0.1610    -5.3330 c3         1 P7A      -0.198600
     25 C23         -3.7540     1.8250    -3.0730 c3         1 P7A      -0.198600
     26 C24         -2.2360     1.6850    -3.2340 c3         1 P7A       0.171800
     27 C31         -1.9130    -1.1630     3.4460 ca         1 P7A      -0.124000
     28 C32         -2.4760    -1.7160     4.5560 ca         1 P7A      -0.122000
     29 C33         -1.7660    -1.8060     5.7510 ca         1 P7A      -0.127000
     30 C34         -0.4880    -1.3470     5.8430 ca         1 P7A      -0.111000
     31 HN2         -1.6690     0.1140     1.1690 hn         1 P7A       0.321500
     32 H6           2.0020    -0.3440     5.7030 ha         1 P7A       0.133000
     33 H7           3.0310     0.6380     3.7250 ha         1 P7A       0.133000
     34 H8           1.7920     0.8050     1.6060 ha         1 P7A       0.179000
     35 HN9         -1.6740     0.0330    -1.1670 hn         1 P7A       0.327500
     36 H14          1.9840    -0.5730    -1.5620 ha         1 P7A       0.209000
     37 H17          4.6420    -2.4870    -3.8640 hc         1 P7A       0.040922
     38 H17A         3.7550    -2.1250    -2.3780 hc         1 P7A       0.040922
     39 H17B         2.9240    -2.8900    -3.7390 hc         1 P7A       0.040922
     40 H18          4.5520    -0.9800    -5.7660 hc         1 P7A       0.040922
     41 H18A         3.2240     0.1770    -5.9260 hc         1 P7A       0.040922
     42 H18B         2.8940    -1.5610    -5.9730 hc         1 P7A       0.040922
     43 H19          4.3080     0.0850    -2.3140 hc         1 P7A       0.040922
     44 H19A         3.8160     1.2470    -3.5540 hc         1 P7A       0.040922
     45 H19B         5.2190     0.2040    -3.8260 hc         1 P7A       0.040922
     46 H20         -1.8340    -0.6590    -5.6010 h1         1 P7A       0.066950
     47 H20A        -1.9140     1.1050    -5.7360 h1         1 P7A       0.066950
     48 H21         -4.0650     0.0280    -6.3750 h1         1 P7A       0.108950
     49 H21A        -4.1770    -0.6710    -4.7480 h1         1 P7A       0.108950
     50 H23         -3.9850     2.7860    -2.6300 h1         1 P7A       0.108950
     51 H23A        -4.1270     1.0280    -2.4420 h1         1 P7A       0.108950
     52 H24         -1.8750     2.4510    -3.9100 h1         1 P7A       0.066950
     53 H24A        -1.7620     1.7990    -2.2670 h1         1 P7A       0.066950
     54 H31         -2.4770    -1.1000     2.5240 ha         1 P7A       0.120000
     55 H32         -3.4920    -2.0900     4.5100 ha         1 P7A       0.128000
     56 H33         -2.2370    -2.2500     6.6200 ha         1 P7A       0.130000
     57 H34          0.0520    -1.4230     6.7790 ha         1 P7A       0.135000
     58 O2          -5.9240     1.5280    -4.5500 o          1 P7A      -0.610300
@<TRIPOS>BOND
     1     1     3 2
     2     1     6 1
     3     1    15 1
     4     2     5 1
     5     2    23 1
     6     2    26 1
     7     4     5 1
     8     4    17 1
     9     5    16 2
    10     6     8 1
    11    58     7 2
    12     7     9 2
    13     7    24 1
    14     7    25 1
    15     8    10 ar
    16     8    14 ar
    17    10    11 ar
    18    10    27 ar
    19    11    12 ar
    20    11    30 ar
    21    12    13 ar
    22    13    14 ar
    23    15    16 1
    24    16    18 1
    25    17    18 2
    26    17    19 1
    27    19    20 1
    28    19    21 1
    29    19    22 1
    30    23    24 1
    31    25    26 1
    32    27    28 ar
    33    28    29 ar
    34    29    30 ar
    35     6    31 1
    36    12    32 1
    37    13    33 1
    38    14    34 1
    39    15    35 1
    40    18    36 1
    41    20    37 1
    42    20    38 1
    43    20    39 1
    44    21    40 1
    45    21    41 1
    46    21    42 1
    47    22    43 1
    48    22    44 1
    49    22    45 1
    50    23    46 1
    51    23    47 1
    52    24    48 1
    53    24    49 1
    54    25    50 1
    55    25    51 1
    56    26    52 1
    57    26    53 1
    58    27    54 1
    59    28    55 1
    60    29    56 1
    61    30    57 1
@<TRIPOS>SUBSTRUCTURE
     1 P7A         1 TEMP              0 ****  ****    0 ROOT
