@<TRIPOS>MOLECULE
P7B
   61    64     1     0     0
SMALL
bcc


@<TRIPOS>ATOM
      1 C1          0.0230    0.2240    0.0280 cc        1 P7B     -0.165400
      2 S2          1.6920    0.2710   -0.1130 ss        1 P7B      0.156200
      3 C3          1.9390    0.4650    1.5500 cc        1 P7B      0.088500
      4 C4          0.7090    0.5310    2.2320 cd        1 P7B     -0.256600
      5 C5         -0.3880    0.3690    1.3350 cd        1 P7B     -0.110000
      6 C6         -0.8690    0.0350   -1.1490 c3        1 P7B      0.025300
      7 C7         -1.8120    1.2280   -1.2820 c3        1 P7B     -0.088100
      8 C8         -0.0360   -0.0830   -2.4210 c3        1 P7B     -0.088100
      9 C9         -1.6940   -1.2370   -0.9740 c3        1 P7B     -0.088100
     10 C10         0.6150    0.6500    3.6960 c         1 P7B      0.714700
     11 O11         1.4310    0.0440    4.4330 o         1 P7B     -0.645100
     12 N12         3.1700    0.5610    2.1740 n         1 P7B     -0.442100
     13 C13         4.3760    0.4270    1.4520 c         1 P7B      0.776100
     14 O14         4.3420    0.3580    0.2000 o         1 P7B     -0.623100
     15 N15         5.5670    0.4330    2.1870 n         1 P7B     -0.467100
     16 C16         6.8380    0.2390    1.6100 ca        1 P7B      0.069600
     17 C17         7.1400    0.7320    0.3450 ca        1 P7B     -0.138000
     18 C18         8.4370    0.5930   -0.1920 ca        1 P7B     -0.107000
     19 C19         9.4310   -0.0190    0.5260 ca        1 P7B     -0.135000
     20 C20         9.1610   -0.5440    1.8180 ca        1 P7B     -0.022000
     21 C21         7.8590   -0.4410    2.3740 ca        1 P7B     -0.052000
     22 C22        10.1920   -1.1870    2.5600 ca        1 P7B     -0.116000
     23 C23         9.9390   -1.7210    3.7980 ca        1 P7B     -0.126000
     24 C24         8.6380   -1.6410    4.3450 ca        1 P7B     -0.123000
     25 C25         7.6260   -1.0200    3.6530 ca        1 P7B     -0.126000
     26 N26        -0.3480    1.4620    4.2870 n         1 P7B     -0.471800
     27 C27        -1.1890    2.3670    3.5540 c3        1 P7B      0.068000
     28 C28        -2.6890    1.9830    3.5510 c3        1 P7B      0.080000
     29 N29        -3.3870    2.2500    4.7690 n         1 P7B     -0.579900
     30 C30        -3.0570    1.7200    6.0010 c         1 P7B      0.693500
     31 C31        -1.8930    0.7650    6.1320 c3        1 P7B     -0.169400
     32 C32        -0.5640    1.3960    5.7150 c3        1 P7B      0.091000
     33 O33        -3.7470    2.0400    6.9910 o         1 P7B     -0.647500
     34 H5         -1.4300    0.3450    1.6680 ha        1 P7B      0.151000
     35 H7         -2.4930    1.0780   -2.1530 hc        1 P7B      0.039589
     36 H7A        -1.2300    2.1670   -1.4380 hc        1 P7B      0.039589
     37 H7B        -2.4280    1.3370   -0.3580 hc        1 P7B      0.039589
     38 H8          0.5660    0.8440   -2.5820 hc        1 P7B      0.039589
     39 H8A         0.6560   -0.9580   -2.3540 hc        1 P7B      0.039589
     40 H8B        -0.7060   -0.2280   -3.3020 hc        1 P7B      0.039589
     41 H9         -1.0240   -2.1270   -0.9020 hc        1 P7B      0.039589
     42 H9A        -2.3760   -1.3710   -1.8480 hc        1 P7B      0.039589
     43 H9B        -2.3070   -1.1750   -0.0440 hc        1 P7B      0.039589
     44 HN12        3.1590    0.4970    3.1730 hn        1 P7B      0.353500
     45 HN15        5.5240    0.4080    3.1800 hn        1 P7B      0.327500
     46 H17         6.3680    1.2300   -0.2660 ha        1 P7B      0.166000
     47 H18         8.6330    0.9930   -1.1980 ha        1 P7B      0.138000
     48 H19        10.4480   -0.1190    0.1170 ha        1 P7B      0.136000
     49 H22        11.1970   -1.2470    2.1140 ha        1 P7B      0.135000
     50 H23        10.7350   -2.2170    4.3720 ha        1 P7B      0.135000
     51 H24         8.4450   -2.0870    5.3320 ha        1 P7B      0.135000
     52 H25         6.6240   -0.9990    4.1050 ha        1 P7B      0.123000
     53 H27        -0.8480    2.4300    2.4820 h1        1 P7B      0.066200
     54 H27A       -1.0740    3.3970    4.0050 h1        1 P7B      0.066200
     55 H28        -3.1800    2.5780    2.7290 h1        1 P7B      0.051700
     56 H28A       -2.7920    0.8880    3.2940 h1        1 P7B      0.051700
     57 HN29       -4.1310    2.9090    4.7420 hn        1 P7B      0.320500
     58 H31        -2.1050   -0.1650    5.5430 hc        1 P7B      0.083200
     59 H31A       -1.8170    0.4780    7.2160 hc        1 P7B      0.083200
     60 H32        -0.5120    2.4430    6.1330 h1        1 P7B      0.073200
     61 H32A        0.2690    0.7940    6.1830 h1        1 P7B      0.073200
@<TRIPOS>BOND
     1    1    2 1   
     2    1    5 2   
     3    1    6 1   
     4    2    3 1   
     5    3    4 2   
     6    3   12 1   
     7    4    5 1   
     8    4   10 1   
     9    5   34 1   
    10    6    7 1   
    11    6    8 1   
    12    6    9 1   
    13    7   35 1   
    14    7   36 1   
    15    7   37 1   
    16    8   38 1   
    17    8   39 1   
    18    8   40 1   
    19    9   41 1   
    20    9   42 1   
    21    9   43 1   
    22   10   11 2   
    23   10   26 1   
    24   12   13 1   
    25   12   44 1   
    26   13   14 2   
    27   13   15 1   
    28   15   16 1   
    29   15   45 1   
    30   16   17 ar  
    31   16   21 ar  
    32   17   18 ar  
    33   17   46 1   
    34   18   19 ar  
    35   18   47 1   
    36   19   20 ar  
    37   19   48 1   
    38   20   21 ar  
    39   20   22 ar  
    40   21   25 ar  
    41   22   23 ar  
    42   22   49 1   
    43   23   24 ar  
    44   23   50 1   
    45   24   25 ar  
    46   24   51 1   
    47   25   52 1   
    48   26   27 1   
    49   26   32 1   
    50   27   28 1   
    51   27   53 1   
    52   27   54 1   
    53   28   29 1   
    54   28   55 1   
    55   28   56 1   
    56   29   30 1   
    57   29   57 1   
    58   30   31 1   
    59   30   33 2   
    60   31   32 1   
    61   31   58 1   
    62   31   59 1   
    63   32   60 1   
    64   32   61 1   
@<TRIPOS>SUBSTRUCTURE
     1 P7B         1 TEMP              0 ****  ****    0 ROOT
