@<TRIPOS>MOLECULE
molecule
   69    71     1     0     0
SMALL
bcc


@<TRIPOS>ATOM
      1 Cl1          0.0000     0.0000     0.0000 cl         1 P7C      -0.089400
      2 N2           3.2950     4.5980   -12.8320 n3         1 P7C      -0.735600
      3 S2           6.0440    -1.6010    -3.6150 ss         1 P7C       0.047200
      4 Cl2          0.2020    -0.0370     3.1140 cl         1 P7C      -0.082400
      5 C3           4.6660    -0.8250    -4.2450 cc         1 P7C       0.116500
      6 C4           4.7340    -0.7500    -5.6130 cd         1 P7C      -0.257600
      7 C5           5.9430    -1.3410    -6.1460 cd         1 P7C      -0.117000
      8 C10          3.6950    -0.1370    -6.4460 c          1 P7C       0.693700
      9 C11          6.7390    -1.8350    -5.2100 cc         1 P7C      -0.085400
     10 O11          2.5770    -0.6160    -6.4750 o          1 P7C      -0.615100
     11 N12          3.6160    -0.3370    -3.4820 ns         1 P7C      -0.437100
     12 C13          3.6450    -0.4610    -2.1400 c          1 P7C       0.780100
     13 C14          8.0600    -2.5080    -5.4780 c3         1 P7C       0.011300
     14 O14          4.5910    -1.0020    -1.6000 o          1 P7C      -0.632100
     15 N15          2.6260     0.0130    -1.3970 ns         1 P7C      -0.472100
     16 C16          2.7130     0.0000     0.0000 ca         1 P7C       0.090600
     17 C17          3.9550     0.0000     0.6200 ca         1 P7C      -0.132000
     18 C19          2.8870    -0.0250     2.7630 ca         1 P7C      -0.135000
     19 C20          1.6460    -0.0200     2.1490 ca         1 P7C       0.051400
     20 C22          7.8380    -3.7330    -6.3660 c3         1 P7C      -0.083433
     21 C23          4.0390    -0.0120     1.9990 ca         1 P7C      -0.097000
     22 C24          1.5560    -0.0080     0.7700 ca         1 P7C      -0.013600
     23 C25          2.8980     1.6070    -7.9160 c3         1 P7C       0.081000
     24 C26          5.3970     2.5230    -9.4320 c          1 P7C       0.695500
     25 N26          3.9780     0.9580    -7.1780 n          1 P7C      -0.488800
     26 C28          3.1750     1.5210    -9.4210 c3         1 P7C       0.083000
     27 N29          4.1130     2.5900    -9.7920 n          1 P7C      -0.489800
     28 C33          5.9090     1.3490    -8.6290 c3         1 P7C      -0.176400
     29 C34          5.3530     1.4510    -7.2030 c3         1 P7C       0.100000
     30 C35          3.6340     3.7390   -10.5630 c3         1 P7C       0.105000
     31 C36          3.7750     3.4460   -12.0580 c3         1 P7C       0.140800
     32 C37          4.1580     5.7680   -12.6230 c3         1 P7C       0.150600
     33 C38          3.1920     4.2680   -14.2590 c3         1 P7C       0.150600
     34 H5           6.1730    -1.3750    -7.2040 ha         1 P7C       0.152000
     35 H7           9.0310    -0.5960    -5.6320 hc         1 P7C       0.039589
     36 H7A          8.6330    -1.3380    -7.1880 hc         1 P7C       0.039589
     37 H7B          9.9930    -1.9520    -6.2370 hc         1 P7C       0.039589
     38 H8           8.0320    -3.6540    -3.6600 hc         1 P7C       0.039589
     39 H8A          8.8280    -2.0810    -3.5160 hc         1 P7C       0.039589
     40 H8B          9.6460    -3.4140    -4.3440 hc         1 P7C       0.039589
     41 HN12         2.8360     0.1040    -3.9270 hn         1 P7C       0.343500
     42 HN15         1.8030     0.3650    -1.8440 hn         1 P7C       0.337500
     43 H17          4.8590     0.0100     0.0220 ha         1 P7C       0.183000
     44 H19          2.9550    -0.0340     3.8440 ha         1 P7C       0.151000
     45 H22          6.9960    -4.3020    -5.9920 hc         1 P7C       0.039589
     46 H22A         7.6350    -3.4110    -7.3810 hc         1 P7C       0.039589
     47 H22B         8.7270    -4.3520    -6.3560 hc         1 P7C       0.039589
     48 H23          5.0090    -0.0140     2.4820 ha         1 P7C       0.146000
     49 H25          2.8350     2.6470    -7.6220 h1         1 P7C       0.073200
     50 H25A         1.9620     1.1080    -7.6950 h1         1 P7C       0.073200
     51 H28          2.2490     1.6460    -9.9680 h1         1 P7C       0.064200
     52 H28A         3.6140     0.5580    -9.6540 h1         1 P7C       0.064200
     53 H33          6.9910     1.3740    -8.5990 hc         1 P7C       0.076200
     54 H33A         5.5730     0.4250    -9.0840 hc         1 P7C       0.076200
     55 H34          5.3690     2.4860    -6.8850 h1         1 P7C       0.070700
     56 H34A         5.9620     0.8530    -6.5360 h1         1 P7C       0.070700
     57 H35          2.5920     3.9230   -10.3280 h1         1 P7C       0.066700
     58 H35A         4.2200     4.6140   -10.3100 h1         1 P7C       0.066700
     59 H36          4.8160     3.2620   -12.2930 h1         1 P7C       0.040700
     60 H36A         3.1880     2.5710   -12.3120 h1         1 P7C       0.040700
     61 H37          4.0270     6.4650   -13.4420 h1         1 P7C       0.034367
     62 H37A         3.8910     6.2520   -11.6910 h1         1 P7C       0.034367
     63 H37B         5.1930     5.4510   -12.5820 h1         1 P7C       0.034367
     64 H38          2.7080     3.3050   -14.3740 h1         1 P7C       0.034367
     65 H38A         2.6080     5.0280   -14.7640 h1         1 P7C       0.034367
     66 H38B         4.1840     4.2270   -14.6930 h1         1 P7C       0.034367
     67 O33          6.1600     3.4110    -9.7510 o          1 P7C      -0.649500
     68 C7           8.9980    -1.5270    -6.1860 c3         1 P7C      -0.083433
     69 C8           8.6870    -2.9460    -4.1530 c3         1 P7C      -0.083433
@<TRIPOS>BOND
     1     1    22 1
     2     2    31 1
     3     2    32 1
     4     2    33 1
     5     3     5 1
     6     3     9 1
     7     4    19 1
     8     5     6 2
     9     5    11 1
    10     6     7 1
    11     6     8 1
    12     7     9 2
    13    68    13 1
    14    69    13 1
    15     8    10 2
    16     8    25 1
    17     9    13 1
    18    11    12 1
    19    12    14 2
    20    12    15 1
    21    13    20 1
    22    15    16 1
    23    16    17 ar
    24    16    22 ar
    25    17    21 ar
    26    18    19 ar
    27    18    21 ar
    28    19    22 ar
    29    23    25 1
    30    23    26 1
    31    24    27 1
    32    24    28 1
    33    24    67 2
    34    25    29 1
    35    26    27 1
    36    27    30 1
    37    28    29 1
    38    30    31 1
    39     7    34 1
    40    68    35 1
    41    68    36 1
    42    68    37 1
    43    69    38 1
    44    69    39 1
    45    69    40 1
    46    11    41 1
    47    15    42 1
    48    17    43 1
    49    18    44 1
    50    20    45 1
    51    20    46 1
    52    20    47 1
    53    21    48 1
    54    23    49 1
    55    23    50 1
    56    26    51 1
    57    26    52 1
    58    28    53 1
    59    28    54 1
    60    29    55 1
    61    29    56 1
    62    30    57 1
    63    30    58 1
    64    31    59 1
    65    31    60 1
    66    32    61 1
    67    32    62 1
    68    32    63 1
    69    33    64 1
    70    33    65 1
    71    33    66 1
@<TRIPOS>SUBSTRUCTURE
     1 P7C         1 TEMP              0 ****  ****    0 ROOT
