@<TRIPOS>MOLECULE
P7I
   13    12     1     0     0
SMALL
bcc


@<TRIPOS>ATOM
      1 NAA         0.4710    0.3700   -0.3820 n3        1 P7I     -0.929800
      2 OAB         4.3900   -0.7950    0.5640 o         1 P7I     -0.962500
      3 OAC         4.1150    0.9540    2.4020 o         1 P7I     -0.962500
      4 OAD         3.2230    1.4150    0.0490 o         1 P7I     -0.962500
      5 CAE         1.2770   -0.6640    0.2530 c3        1 P7I      0.204800
      6 CAF         1.9900   -0.3190    1.5300 c3        1 P7I     -0.306600
      7 PAG         3.6060    0.3840    1.0970 p5        1 P7I      1.220700
      8 HNAA        1.1000    1.0080   -0.8500 hn        1 P7I      0.334300
      9 HNAB        0.0190    0.9090    0.3370 hn        1 P7I      0.334300
     10 HAE         2.0670   -0.9970   -0.4830 h1        1 P7I      0.000700
     11 HAEA        0.5750   -1.5400    0.4180 h1        1 P7I      0.000700
     12 HAF         1.4410    0.4150    2.1540 hc        1 P7I      0.013700
     13 HAFA        2.1740   -1.2330    2.1310 hc        1 P7I      0.013700
@<TRIPOS>BOND
     1    1    5 1
     2    1    8 1
     3    1    9 1
     4    2    7 1
     5    3    7 1
     6    4    7 1
     7    5    6 1
     8    5   10 1
     9    5   11 1
    10    6    7 1
    11    6   12 1
    12    6   13 1
@<TRIPOS>SUBSTRUCTURE
     1 P7I         1 TEMP              0 ****  ****    0 ROOT
