@<TRIPOS>MOLECULE
P7Y
   19    20     1     0     0
SMALL
bcc


@<TRIPOS>ATOM
      1 C1           0.0000     0.0000     0.0000 c2         1 P7Y      -0.256000
      2 N1           1.4800     0.0000     0.0000 no         1 P7Y       1.389000
      3 O1           2.0900     0.0000     1.0550 o          1 P7Y      -0.626500
      4 C2          -0.6630     0.0060     1.1490 c2         1 P7Y       0.033000
      5 O2           2.0890    -0.0000    -1.0550 o          1 P7Y      -0.626500
      6 C1'         -2.1400     0.0070     1.1490 c3         1 P7Y      -0.081000
      7 C2'         -2.8430     0.0130     2.3600 c2         1 P7Y       0.073000
      8 O2'         -2.1700     0.0190     3.5400 oh         1 P7Y      -0.231000
      9 C3'         -4.2280     0.0130     2.3510 c2         1 P7Y      -0.144000
     10 C4'         -4.9120     0.0070     1.1490 c2         1 P7Y      -0.073000
     11 C5'         -4.2210    -0.0000    -0.0490 c2         1 P7Y      -0.100000
     12 C6'         -2.8410     0.0060    -0.0560 c2         1 P7Y      -0.097000
     13 H1           0.6120    -0.8740     0.1870 h4         1 P7Y      -0.076000
     14 H2          -1.2750    -0.8700     0.9700 DU         1 P7Y       0.138000
     15 HO2'        -2.4320    -0.7260     4.0550 ho         1 P7Y       0.207000
     16 H3'         -4.7760     0.0180     3.2850 ha         1 P7Y       0.118000
     17 H4'         -5.9960     0.0040     1.1460 ha         1 P7Y       0.109000
     18 H5'         -4.7650    -0.0030    -0.9860 ha         1 P7Y       0.114000
     19 H6'         -2.3040     0.0010    -0.9970 ha         1 P7Y       0.130000
@<TRIPOS>BOND
     1     1     2 1   
     2     1     4 1   
     3     1    13 1   
     4     2     3 1   
     5     2     5 1   
     6     4     6 1   
     7     4    14 1   
     8     6     7 1   
     9     6    12 1   
    10     6    14 1   
    11     7     8 1   
    12     7     9 1   
    13     8    15 1   
    14     9    10 1   
    15     9    16 1   
    16    10    11 1   
    17    10    17 1   
    18    11    12 1   
    19    11    18 1   
    20    12    19 1   
@<TRIPOS>SUBSTRUCTURE
     1 P7Y         1 TEMP              0 ****  ****    0 ROOT
