@<TRIPOS>MOLECULE
molecule
   19    19     1     0     0
SMALL
bcc


@<TRIPOS>ATOM
      1 C1           0.0000     0.0000     0.0000 c2         1 P7Y      -0.240100
      2 N1           1.4800     0.0000     0.0000 no         1 P7Y       0.268100
      3 O1           2.0900     0.0000     1.0550 o          1 P7Y      -0.210000
      4 C2          -0.6630     0.0060     1.1490 ce         1 P7Y       0.004800
      5 O2           2.0890    -0.0000    -1.0550 o          1 P7Y      -0.210000
      6 C1'         -2.1400     0.0070     1.1490 ca         1 P7Y      -0.112800
      7 C2'         -2.8430     0.0130     2.3600 ca         1 P7Y       0.151100
      8 O2'         -2.1700     0.0190     3.5400 oh         1 P7Y      -0.510100
      9 C3'         -4.2280     0.0130     2.3510 ca         1 P7Y      -0.183000
     10 C4'         -4.9120     0.0070     1.1490 ca         1 P7Y      -0.082000
     11 C5'         -4.2210    -0.0000    -0.0490 ca         1 P7Y      -0.146000
     12 C6'         -2.8410     0.0060    -0.0560 ca         1 P7Y      -0.086000
     13 H1          -0.5420    -0.0040    -0.9380 h4         1 P7Y       0.182000
     14 H2          -0.1210     0.0100     2.0870 ha         1 P7Y       0.179000
     15 HO2'        -2.4090     0.7850     4.0350 ho         1 P7Y       0.430000
     16 H3'         -4.7760     0.0180     3.2850 ha         1 P7Y       0.145000
     17 H4'         -5.9960     0.0040     1.1460 ha         1 P7Y       0.140000
     18 H5'         -4.7650    -0.0030    -0.9860 ha         1 P7Y       0.141000
     19 H6'         -2.3040     0.0010    -0.9970 ha         1 P7Y       0.140000
@<TRIPOS>BOND
     1     1     2 1
     2     2     3 1
     3     2     5 1
     4     4     1 2
     5     6     4 1
     6     7     6 ar
     7     7     8 1
     8     9     7 ar
     9    10     9 ar
    10    10    11 ar
    11    11    12 ar
    12    12     6 ar
    13     1    13 1
    14     4    14 1
    15     8    15 1
    16     9    16 1
    17    10    17 1
    18    11    18 1
    19    12    19 1
@<TRIPOS>SUBSTRUCTURE
     1 P7Y         1 TEMP              0 ****  ****    0 ROOT
