@<TRIPOS>MOLECULE
P80
   19    20     1     0     0
SMALL
bcc


@<TRIPOS>ATOM
      1 C1           0.0000     0.0000     0.0000 c2         1 P80      -0.284000
      2 N1           1.4800     0.0000     0.0000 no         1 P80       1.281000
      3 O1           2.0890     0.0000     1.0550 o          1 P80      -0.611500
      4 C2          -0.6630    -0.0010    -1.1480 c2         1 P80      -0.024000
      5 O2           2.0890    -0.0000    -1.0540 o          1 P80      -0.611500
      6 C1'         -2.1410    -0.0010    -1.1480 c3         1 P80      -0.065000
      7 C2'         -2.8400    -0.0010    -2.3540 c2         1 P80      -0.136000
      8 C3'         -4.2240    -0.0020    -2.3470 c2         1 P80       0.095000
      9 O3'         -4.9100    -0.0020    -3.5200 oh         1 P80      -0.249000
     10 C4'         -4.9140    -0.0030    -1.1420 c2         1 P80      -0.123000
     11 C5'         -4.2210    -0.0020     0.0550 c2         1 P80      -0.068000
     12 C6'         -2.8410    -0.0060     0.0590 c2         1 P80      -0.117000
     13 H1           0.6120    -0.8750    -0.1850 h4         1 P80       0.014000
     14 H2          -1.2750     0.8740    -0.9630 DU         1 P80       0.195000
     15 H2'         -2.3030    -0.0870    -3.2910 ha         1 P80       0.131000
     16 HO3'        -5.0500    -0.8910    -3.8030 ho         1 P80       0.208000
     17 H4'         -5.9970    -0.0010    -1.1390 ha         1 P80       0.121000
     18 H5'         -4.7630    -0.0050     0.9930 ha         1 P80       0.114000
     19 H6'         -2.3020    -0.0060     0.9980 ha         1 P80       0.131000
@<TRIPOS>BOND
     1     1     2 1   
     2     1     4 1   
     3     1    13 1   
     4     2     3 1   
     5     2     5 1   
     6     4     6 1   
     7     4    14 1   
     8     6     7 1   
     9     6    12 1   
    10     6    14 1   
    11     7     8 1   
    12     7    15 1   
    13     8     9 1   
    14     8    10 1   
    15     9    16 1   
    16    10    11 1   
    17    10    17 1   
    18    11    12 1   
    19    11    18 1   
    20    12    19 1   
@<TRIPOS>SUBSTRUCTURE
     1 P80         1 TEMP              0 ****  ****    0 ROOT
