@<TRIPOS>MOLECULE
molecule
   19    19     1     0     0
SMALL
bcc


@<TRIPOS>ATOM
      1 C1           0.0000     0.0000     0.0000 c2         1 P80      -0.229100
      2 N1           1.4800     0.0000     0.0000 no         1 P80       0.267100
      3 O1           2.0890     0.0000     1.0550 o          1 P80      -0.208000
      4 C2          -0.6630    -0.0010    -1.1480 ce         1 P80      -0.008200
      5 O2           2.0890    -0.0000    -1.0540 o          1 P80      -0.208000
      6 C1'         -2.1410    -0.0010    -1.1480 ca         1 P80      -0.078800
      7 C2'         -2.8400    -0.0010    -2.3540 ca         1 P80      -0.122000
      8 C3'         -4.2240    -0.0020    -2.3470 ca         1 P80       0.107100
      9 O3'         -4.9100    -0.0020    -3.5200 oh         1 P80      -0.517100
     10 C4'         -4.9140    -0.0030    -1.1420 ca         1 P80      -0.128000
     11 C5'         -4.2210    -0.0020     0.0550 ca         1 P80      -0.115000
     12 C6'         -2.8410    -0.0060     0.0590 ca         1 P80      -0.115000
     13 H1          -0.5410     0.0010     0.9380 h4         1 P80       0.186000
     14 H2          -0.1210    -0.0010    -2.0860 ha         1 P80       0.168000
     15 H2'         -2.3030     0.0860    -3.2910 ha         1 P80       0.151000
     16 HO3'        -5.0210    -0.8890    -3.8200 ho         1 P80       0.425000
     17 H4'         -5.9970    -0.0010    -1.1390 ha         1 P80       0.148000
     18 H5'         -4.7630    -0.0050     0.9930 ha         1 P80       0.142000
     19 H6'         -2.3020    -0.0060     0.9980 ha         1 P80       0.137000
@<TRIPOS>BOND
     1     1     2 1
     2     1     4 2
     3     2     5 1
     4     3     2 1
     5     6     4 1
     6     6     7 ar
     7     8     7 ar
     8     8     9 1
     9    10     8 ar
    10    11    10 ar
    11    11    12 ar
    12    12     6 ar
    13     1    13 1
    14     4    14 1
    15     7    15 1
    16     9    16 1
    17    10    17 1
    18    11    18 1
    19    12    19 1
@<TRIPOS>SUBSTRUCTURE
     1 P80         1 TEMP              0 ****  ****    0 ROOT
