@<TRIPOS>MOLECULE
P81
   19    20     1     0     0
SMALL
bcc


@<TRIPOS>ATOM
      1 C1           0.0000     0.0000     0.0000 c2         1 P81      -0.242000
      2 N1           1.4800     0.0000     0.0000 no         1 P81       1.388000
      3 O1           2.0900     0.0000     1.0550 o          1 P81      -0.624500
      4 C2          -0.6630     0.0000     1.1490 c2         1 P81      -0.005000
      5 O2           2.0900    -0.0000    -1.0550 o          1 P81      -0.624500
      6 C1'         -2.1410     0.0070     1.1490 c3         1 P81      -0.066000
      7 C2'         -2.8410     0.0070    -0.0590 c2         1 P81      -0.099000
      8 C3'         -4.2200     0.0130    -0.0550 c2         1 P81      -0.115000
      9 C4'         -4.9110     0.0190     1.1490 c2         1 P81       0.081000
     10 O4'         -6.2710     0.0260     1.1490 oh         1 P81      -0.251000
     11 C5'         -4.2190     0.0190     2.3530 c2         1 P81      -0.115000
     12 C6'         -2.8400     0.0070     2.3560 c2         1 P81      -0.099000
     13 H1           0.6100    -0.8770     0.1800 h4         1 P81      -0.075000
     14 H2          -1.2770    -0.8740     0.9680 DU         1 P81       0.145000
     15 H2'         -2.3010     0.0020    -0.9980 ha         1 P81       0.125000
     16 H3'         -4.7640     0.0130    -0.9920 ha         1 P81       0.122000
     17 HO4'        -6.5810     0.9160     1.1480 ho         1 P81       0.207000
     18 H5'         -4.7620     0.0210     3.2900 ha         1 P81       0.122000
     19 H6'         -2.3010     0.0060     3.2950 ha         1 P81       0.125000
@<TRIPOS>BOND
     1     1     2 1   
     2     1     4 1   
     3     1    13 1   
     4     2     3 1   
     5     2     5 1   
     6     4     6 1   
     7     4    14 1   
     8     6     7 1   
     9     6    12 1   
    10     6    14 1   
    11     7     8 1   
    12     7    15 1   
    13     8     9 1   
    14     8    16 1   
    15     9    10 1   
    16     9    11 1   
    17    10    17 1   
    18    11    12 1   
    19    11    18 1   
    20    12    19 1   
@<TRIPOS>SUBSTRUCTURE
     1 P81         1 TEMP              0 ****  ****    0 ROOT
