@<TRIPOS>MOLECULE
molecule
   19    19     1     0     0
SMALL
bcc


@<TRIPOS>ATOM
      1 C1           0.0000     0.0000     0.0000 c2         1 P81      -0.232100
      2 N1           1.4800     0.0000     0.0000 no         1 P81       0.266100
      3 O1           2.0900     0.0000     1.0550 o          1 P81      -0.208500
      4 C2          -0.6630     0.0000     1.1490 ce         1 P81      -0.006200
      5 O2           2.0900    -0.0000    -1.0550 o          1 P81      -0.208500
      6 C1'         -2.1410     0.0070     1.1490 ca         1 P81      -0.104800
      7 C2'         -2.8410     0.0070    -0.0590 ca         1 P81      -0.083500
      8 C3'         -4.2200     0.0130    -0.0550 ca         1 P81      -0.156000
      9 C4'         -4.9110     0.0190     1.1490 ca         1 P81       0.133100
     10 O4'         -6.2710     0.0260     1.1490 oh         1 P81      -0.519100
     11 C5'         -4.2190     0.0190     2.3530 ca         1 P81      -0.156000
     12 C6'         -2.8400     0.0070     2.3560 ca         1 P81      -0.083500
     13 H1          -0.5420     0.0050    -0.9380 h4         1 P81       0.185000
     14 H2          -0.1210     0.0010     2.0870 ha         1 P81       0.167000
     15 H2'         -2.3010     0.0020    -0.9980 ha         1 P81       0.141000
     16 H3'         -4.7640     0.0130    -0.9920 ha         1 P81       0.150000
     17 HO4'        -6.5810     0.9160     1.1480 ho         1 P81       0.427000
     18 H5'         -4.7620     0.0210     3.2900 ha         1 P81       0.150000
     19 H6'         -2.3010     0.0060     3.2950 ha         1 P81       0.141000
@<TRIPOS>BOND
     1     1     4 2
     2     2     1 1
     3     2     3 1
     4     4     6 1
     5     5     2 1
     6     6    12 ar
     7     7     6 ar
     8     7     8 ar
     9     8     9 ar
    10     9    11 ar
    11     9    10 1
    12    12    11 ar
    13     1    13 1
    14     4    14 1
    15     7    15 1
    16     8    16 1
    17    10    17 1
    18    11    18 1
    19    12    19 1
@<TRIPOS>SUBSTRUCTURE
     1 P81         1 TEMP              0 ****  ****    0 ROOT
