@<TRIPOS>MOLECULE
P83
   36    38     1     0     0
SMALL
bcc


@<TRIPOS>ATOM
      1 C1           0.0000     0.0000     0.0000 ca         1 P83      -0.118000
      2 C2           1.4320     0.0000     0.0000 ca         1 P83      -0.055000
      3 C3           2.1730     0.0000     1.2300 ca         1 P83      -0.132300
      4 C4           1.4800    -0.0020     2.4650 ca         1 P83      -0.025000
      5 C4A          0.0360    -0.0010     2.4970 cp         1 P83      -0.087000
      6 C4B         -0.9200     0.0010     3.5610 cp         1 P83      -0.081000
      7 C5          -0.7980    -0.0020     4.9940 ca         1 P83      -0.037000
      8 C6          -1.9690     0.0050     5.7970 ca         1 P83      -0.140000
      9 C7          -3.2570     0.0180     5.1980 ca         1 P83      -0.076000
     10 C8          -3.4010     0.0230     3.7840 ca         1 P83      -0.116000
     11 C8A         -2.2170     0.0140     2.9800 ca         1 P83      -0.168200
     12 N9          -2.0420     0.0150     1.5940 na         1 P83       0.368700
     13 C9A         -0.6860     0.0030     1.2650 ca         1 P83      -0.164200
     14 C91         -3.1480     0.0390     0.6250 c3         1 P83      -0.036700
     15 C92         -3.4470     1.4680     0.1670 c3         1 P83      -0.016100
     16 C31          3.6930     0.0130     1.1260 c3         1 P83       0.214100
     17 N32          4.2470    -1.3470     1.1440 n7         1 P83      -0.584200
     18 C33          5.7100    -1.3390     0.9350 c3         1 P83       0.180100
     19 H1          -0.5540     0.0000    -0.9310 ha         1 P83       0.107000
     20 H2           1.9640     0.0020    -0.9430 ha         1 P83       0.105000
     21 H4           2.0370    -0.0020     3.3940 ha         1 P83       0.098000
     22 H311         3.9790     0.5000     0.2010 h1         1 P83       0.004700
     23 H312         4.0990     0.5720     1.9600 h1         1 P83       0.004700
     24 H5           0.1810    -0.0130     5.4580 ha         1 P83       0.100000
     25 H6          -1.8790     0.0010     6.8770 ha         1 P83       0.104000
     26 H7          -4.1390     0.0230     5.8270 ha         1 P83       0.100000
     27 H8          -4.3830     0.0340     3.3260 ha         1 P83       0.107000
     28 H911        -4.0340    -0.3790     1.0880 h1         1 P83       0.029700
     29 H912        -2.8790    -0.5610    -0.2360 h1         1 P83       0.029700
     30 H921        -2.9920     2.1700     0.8540 hc         1 P83       0.012367
     31 H922        -4.5190     1.6240     0.1480 hc         1 P83       0.012367
     32 H923        -3.0420     1.6210    -0.8260 hc         1 P83       0.012367
     33 H32          4.0370    -1.7810     2.0200 hn         1 P83       0.251800
     34 H331         5.9350    -0.9170    -0.0370 h1         1 P83      -0.002300
     35 H332         6.1820    -0.7420     1.7060 h1         1 P83      -0.002300
     36 H333         6.0870    -2.3540     0.9840 h1         1 P83      -0.002300
@<TRIPOS>BOND
     1     1     2 ar  
     2     1    13 ar  
     3     1    19 1   
     4     2     3 ar  
     5     2    20 1   
     6     3     4 ar  
     7     3    16 1   
     8     4     5 ar  
     9     4    21 1   
    10     5     6 1   
    11     5    13 ar  
    12     6     7 ar  
    13     6    11 ar  
    14     7     8 ar  
    15     7    24 1   
    16     8     9 ar  
    17     8    25 1   
    18     9    10 ar  
    19     9    26 1   
    20    10    11 ar  
    21    10    27 1   
    22    11    12 1   
    23    12    13 1   
    24    12    14 1   
    25    14    15 1   
    26    14    28 1   
    27    14    29 1   
    28    15    30 1   
    29    15    31 1   
    30    15    32 1   
    31    16    17 1   
    32    16    22 1   
    33    16    23 1   
    34    17    18 1   
    35    17    33 1   
    36    18    34 1   
    37    18    35 1   
    38    18    36 1   
@<TRIPOS>SUBSTRUCTURE
     1 P83         1 TEMP              0 ****  ****    0 ROOT
