@<TRIPOS>MOLECULE
P84
   39    40     1     0     0
SMALL
bcc


@<TRIPOS>ATOM
      1 C1           0.0000     0.0000     0.0000 ca         1 P84      -0.114300
      2 C2           1.3870     0.0000     0.0000 ca         1 P84       0.180100
      3 C3           2.0790     0.0000     1.2030 ca         1 P84       0.123900
      4 C4          -0.7540    -0.0020    -1.3050 c3         1 P84       0.216100
      5 N5          -0.7910    -1.3670    -1.8480 n3         1 P84      -0.521600
      6 C6           1.3840     0.0010     2.3980 ca         1 P84      -0.045000
      7 C8          -0.6900    -0.0040     1.1960 ca         1 P84      -0.057000
      8 C9          -1.5820    -2.2540    -0.9860 c3         1 P84       0.150100
      9 C10          0.0010     0.0020     2.3950 ca         1 P84       0.174900
     10 I15          4.1730    -0.0010     1.2090 i          1 P84      -0.258900
     11 O16          2.0680    -0.0020    -1.1760 oh         1 P84      -0.471100
     12 I17         -1.0490     0.0030     4.2080 i          1 P84      -0.280900
     13 C11         -3.3180    -0.9900    -4.6510 c3         1 P84       0.160300
     14 C12         -1.8060    -2.7990    -5.2090 c3         1 P84       0.160300
     15 C13         -1.2130    -2.7880    -3.7980 c3         1 P84      -0.054900
     16 C14         -1.3060    -1.3720    -3.2240 c3         1 P84       0.128500
     17 N6          -3.2080    -2.3650    -5.1560 n3         1 P84      -0.546600
     18 C15         -2.7700    -0.9240    -3.2240 c3         1 P84      -0.054900
     19 C16         -3.8500    -2.4960    -6.4710 c3         1 P84       0.188100
     20 H41C        -1.7660     0.3480    -1.1380 h1         1 P84       0.017700
     21 H42C        -0.2570     0.6540    -2.0100 h1         1 P84       0.017700
     22 H8          -1.7740    -0.0040     1.1960 ha         1 P84       0.123000
     23 H16          2.6250     0.7570    -1.2180 ho         1 P84       0.405000
     24 H6           1.9230     0.0030     3.3370 ha         1 P84       0.130000
     25 H91C        -1.9530    -3.0880    -1.5700 h1         1 P84       0.012033
     26 H92C        -0.9590    -2.6260    -0.1810 h1         1 P84       0.012033
     27 H93C        -2.4180    -1.7040    -0.5710 h1         1 P84       0.012033
     28 H141        -0.7220    -0.6960    -3.8360 h1         1 P84       0.036700
     29 H111        -2.7450    -0.3260    -5.2870 h1         1 P84       0.007950
     30 H112        -4.3580    -0.6890    -4.6510 h1         1 P84       0.007950
     31 H131        -1.7700    -3.4700    -3.1680 hc         1 P84       0.031200
     32 H132        -0.1750    -3.0920    -3.8420 hc         1 P84       0.031200
     33 H121        -1.7570    -3.8040    -5.6120 h1         1 P84       0.007950
     34 H122        -1.2440    -2.1230    -5.8410 h1         1 P84       0.007950
     35 H151        -2.8350     0.0940    -2.8600 hc         1 P84       0.031200
     36 H152        -3.3480    -1.5800    -2.5850 hc         1 P84       0.031200
     37 H161        -3.7880    -3.5250    -6.8020 h1         1 P84      -0.000300
     38 H162        -4.8910    -2.2040    -6.3960 h1         1 P84      -0.000300
     39 H163        -3.3460    -1.8550    -7.1850 h1         1 P84      -0.000300
@<TRIPOS>BOND
     1     1     2 ar  
     2     1     4 1   
     3     1     7 ar  
     4     2     3 ar  
     5     2    11 1   
     6     3     6 ar  
     7     3    10 1   
     8     4     5 1   
     9     4    20 1   
    10     4    21 1   
    11     5     8 1   
    12     5    16 1   
    13     6     9 ar  
    14     6    24 1   
    15     7     9 ar  
    16     7    22 1   
    17     8    25 1   
    18     8    26 1   
    19     8    27 1   
    20     9    12 1   
    21    11    23 1   
    22    13    17 1   
    23    13    18 1   
    24    13    29 1   
    25    13    30 1   
    26    14    15 1   
    27    14    17 1   
    28    14    33 1   
    29    14    34 1   
    30    15    16 1   
    31    15    31 1   
    32    15    32 1   
    33    16    18 1   
    34    16    28 1   
    35    17    19 1   
    36    18    35 1   
    37    18    36 1   
    38    19    37 1   
    39    19    38 1   
    40    19    39 1   
@<TRIPOS>SUBSTRUCTURE
     1 P84         1 TEMP              0 ****  ****    0 ROOT
