@<TRIPOS>MOLECULE
molecule
   39    40     1     0     0
SMALL
bcc


@<TRIPOS>ATOM
      1 C1           0.0000     0.0000     0.0000 ca         1 P84      -0.101300
      2 C2           1.3870     0.0000     0.0000 ca         1 P84       0.180100
      3 C3           2.0790     0.0000     1.2030 ca         1 P84      -0.010100
      4 C4          -0.7540    -0.0020    -1.3050 c3         1 P84       0.217100
      5 N5          -0.7910    -1.3670    -1.8480 n3         1 P84      -0.710600
      6 C6           1.3840     0.0010     2.3980 ca         1 P84      -0.048000
      7 C8          -0.6900    -0.0040     1.1960 ca         1 P84      -0.064000
      8 C9          -1.5820    -2.2540    -0.9860 c3         1 P84       0.139100
      9 C10          0.0010     0.0020     2.3950 ca         1 P84       0.028900
     10 I15          4.1730    -0.0010     1.2090 i          1 P84      -0.151900
     11 O16          2.0680    -0.0020    -1.1760 oh         1 P84      -0.491100
     12 I17         -1.0490     0.0030     4.2080 i          1 P84      -0.158900
     13 C11         -3.3180    -0.9900    -4.6510 c3         1 P84       0.164800
     14 C12         -1.8060    -2.7990    -5.2090 c3         1 P84       0.164800
     15 C13         -1.2130    -2.7880    -3.7980 c3         1 P84      -0.097400
     16 C14         -1.3060    -1.3720    -3.2240 c3         1 P84       0.169500
     17 N6          -3.2080    -2.3650    -5.1560 n3         1 P84      -0.732600
     18 C15         -2.7700    -0.9240    -3.2240 c3         1 P84      -0.097400
     19 C16         -3.8500    -2.4960    -6.4710 c3         1 P84       0.153100
     20 H41C        -1.7660     0.3480    -1.1380 h1         1 P84       0.044200
     21 H42C        -0.2570     0.6540    -2.0100 h1         1 P84       0.044200
     22 H8          -1.7740    -0.0040     1.1960 ha         1 P84       0.148000
     23 H16          2.6250     0.7570    -1.2180 ho         1 P84       0.426000
     24 H6           1.9230     0.0030     3.3370 ha         1 P84       0.154000
     25 H91C        -1.9530    -3.0880    -1.5700 h1         1 P84       0.037367
     26 H92C        -0.9590    -2.6260    -0.1810 h1         1 P84       0.037367
     27 H93C        -2.4180    -1.7040    -0.5710 h1         1 P84       0.037367
     28 H141        -0.7220    -0.6960    -3.8360 h1         1 P84       0.063700
     29 H111        -2.7450    -0.3260    -5.2870 h1         1 P84       0.034200
     30 H112        -4.3580    -0.6890    -4.6510 h1         1 P84       0.034200
     31 H131        -1.7700    -3.4700    -3.1680 hc         1 P84       0.055200
     32 H132        -0.1750    -3.0920    -3.8420 hc         1 P84       0.055200
     33 H121        -1.7570    -3.8040    -5.6120 h1         1 P84       0.034200
     34 H122        -1.2440    -2.1230    -5.8410 h1         1 P84       0.034200
     35 H151        -2.8350     0.0940    -2.8600 hc         1 P84       0.055200
     36 H152        -3.3480    -1.5800    -2.5850 hc         1 P84       0.055200
     37 H161        -3.7880    -3.5250    -6.8020 h1         1 P84       0.031367
     38 H162        -4.8910    -2.2040    -6.3960 h1         1 P84       0.031367
     39 H163        -3.3460    -1.8550    -7.1850 h1         1 P84       0.031367
@<TRIPOS>BOND
     1     1     2 ar
     2     1     4 1
     3     1     7 ar
     4     2     3 ar
     5     2    11 1
     6     3     6 ar
     7     3    10 1
     8     4     5 1
     9     5     8 1
    10     5    16 1
    11     6     9 ar
    12     7     9 ar
    13     9    12 1
    14    14    17 1
    15    13    17 1
    16    19    17 1
    17    15    14 1
    18    15    16 1
    19    18    16 1
    20    13    18 1
    21     4    20 1
    22     4    21 1
    23     7    22 1
    24    11    23 1
    25     6    24 1
    26    13    29 1
    27    13    30 1
    28     8    25 1
    29     8    26 1
    30     8    27 1
    31    16    28 1
    32    15    31 1
    33    15    32 1
    34    14    33 1
    35    14    34 1
    36    18    35 1
    37    18    36 1
    38    19    37 1
    39    19    38 1
    40    19    39 1
@<TRIPOS>SUBSTRUCTURE
     1 P84         1 TEMP              0 ****  ****    0 ROOT
