@<TRIPOS>MOLECULE
P85
   56    59     1     0     0
SMALL
bcc


@<TRIPOS>ATOM
      1 F55          0.0000     0.0000     0.0000 f          1 P85      -0.126900
      2 C26          1.3520     0.0000     0.0000 ca         1 P85       0.112900
      3 C27          2.0440     0.0000     1.1990 ca         1 P85      -0.134000
      4 C28          3.4260    -0.0010     1.1980 ca         1 P85      -0.058000
      5 C25          2.0450    -0.0040    -1.1990 ca         1 P85      -0.134000
      6 C24          3.4260    -0.0040    -1.1970 ca         1 P85      -0.058000
      7 C23          4.1170     0.0010     0.0000 ca         1 P85      -0.139300
      8 C22          5.6240     0.0010    -0.0010 c3         1 P85       0.114300
      9 N21          6.1130    -1.3800    -0.0010 ns         1 P85      -0.204900
     10 C19          7.4380    -1.6260    -0.0020 c          1 P85       0.577100
     11 O20          8.2250    -0.7040    -0.0000 o          1 P85      -0.644100
     12 C16          7.9410    -3.0470    -0.0020 c3         1 P85      -0.124700
     13 C17          7.4380    -3.7670    -1.2560 c3         1 P85      -0.012900
     14 C18          8.0020    -5.1890    -1.2820 c3         1 P85       0.139300
     15 N13          9.4680    -5.1360    -1.2820 n3         1 P85      -0.533600
     16 C14          9.9760    -4.4900    -0.0650 c3         1 P85       0.139300
     17 C15          9.4720    -3.0470    -0.0020 c3         1 P85      -0.012900
     18 C11         10.0440    -6.4760    -1.4470 c3         1 P85       0.183800
     19 C12         11.5670    -6.3990    -1.3160 c3         1 P85      -0.007100
     20 C1           9.6840    -7.0150    -2.8070 ca         1 P85      -0.085300
     21 C2           9.4370    -6.1610    -3.8380 ca         1 P85      -0.089000
     22 C3           9.1020    -6.6400    -5.1030 ca         1 P85      -0.101000
     23 C4           9.0120    -7.9750    -5.3450 ca         1 P85      -0.091000
     24 C5           9.2610    -8.8890    -4.3070 ca         1 P85      -0.037000
     25 C6           9.6060    -8.4020    -3.0210 ca         1 P85      -0.024000
     26 C10          9.1840   -10.2750    -4.5200 ca         1 P85      -0.084000
     27 C9           9.4410   -11.1300    -3.4930 ca         1 P85      -0.104000
     28 C8           9.7800   -10.6520    -2.2280 ca         1 P85      -0.096000
     29 C7           9.8540    -9.3150    -1.9820 ca         1 P85      -0.105000
     30 H271         1.5030    -0.0010     2.1380 ha         1 P85       0.121500
     31 H281         3.9680     0.0010     2.1350 ha         1 P85       0.112500
     32 H251         1.5040    -0.0080    -2.1380 ha         1 P85       0.121500
     33 H241         3.9690    -0.0050    -2.1350 ha         1 P85       0.112500
     34 H221         5.9860     0.5120     0.8840 h1         1 P85       0.030200
     35 H222         5.9850     0.5120    -0.8850 h1         1 P85       0.030200
     36 H211         5.4630    -2.1400     0.0470 hn         1 P85       0.179500
     37 H161         7.5800    -3.5640     0.8790 hc         1 P85       0.035700
     38 H172         6.3560    -3.8080    -1.2390 hc         1 P85       0.028950
     39 H171         7.7710    -3.2310    -2.1370 hc         1 P85       0.028950
     40 H182         7.6610    -5.7270    -0.4060 h1         1 P85       0.016200
     41 H181         7.6600    -5.6950    -2.1780 h1         1 P85       0.016200
     42 H141        11.0600    -4.4920    -0.0820 h1         1 P85       0.016200
     43 H142         9.6230    -5.0330     0.8040 h1         1 P85       0.016200
     44 H151         9.8330    -2.5780     0.9060 hc         1 P85       0.028950
     45 H152         9.8330    -2.5010    -0.8650 hc         1 P85       0.028950
     46 H111         9.6500    -7.1350    -0.6820 h1         1 P85       0.016700
     47 H123        12.0180    -7.2280    -1.8470 hc         1 P85       0.014367
     48 H122        11.8420    -6.4470    -0.2690 hc         1 P85       0.014367
     49 H121        11.9180    -5.4650    -1.7390 hc         1 P85       0.014367
     50 H21          9.5020    -5.0920    -3.6720 ha         1 P85       0.128000
     51 H31          8.9110    -5.9380    -5.9060 ha         1 P85       0.102000
     52 H41          8.7510    -8.3330    -6.3340 ha         1 P85       0.105000
     53 H101         8.9210   -10.6620    -5.4970 ha         1 P85       0.105000
     54 H91          9.3890   -12.1990    -3.6620 ha         1 P85       0.101000
     55 H81          9.9800   -11.3540    -1.4270 ha         1 P85       0.100000
     56 H71         10.1190    -8.9580    -0.9940 ha         1 P85       0.112000
@<TRIPOS>BOND
     1     1     2 1   
     2     2     3 ar  
     3     2     5 ar  
     4     3     4 ar  
     5     3    30 1   
     6     4     7 ar  
     7     4    31 1   
     8     5     6 ar  
     9     5    32 1   
    10     6     7 ar  
    11     6    33 1   
    12     7     8 1   
    13     8     9 1   
    14     8    34 1   
    15     8    35 1   
    16     9    10 1   
    17     9    36 1   
    18    10    11 2   
    19    10    12 1   
    20    12    13 1   
    21    12    17 1   
    22    12    37 1   
    23    13    14 1   
    24    13    38 1   
    25    13    39 1   
    26    14    15 1   
    27    14    40 1   
    28    14    41 1   
    29    15    16 1   
    30    15    18 1   
    31    16    17 1   
    32    16    42 1   
    33    16    43 1   
    34    17    44 1   
    35    17    45 1   
    36    18    19 1   
    37    18    20 1   
    38    18    46 1   
    39    19    47 1   
    40    19    48 1   
    41    19    49 1   
    42    20    21 ar  
    43    20    25 ar  
    44    21    22 ar  
    45    21    50 1   
    46    22    23 ar  
    47    22    51 1   
    48    23    24 ar  
    49    23    52 1   
    50    24    25 ar  
    51    24    26 ar  
    52    25    29 ar  
    53    26    27 ar  
    54    26    53 1   
    55    27    28 ar  
    56    27    54 1   
    57    28    29 ar  
    58    28    55 1   
    59    29    56 1   
@<TRIPOS>SUBSTRUCTURE
     1 P85         1 TEMP              0 ****  ****    0 ROOT
