@<TRIPOS>MOLECULE
molecule
   56    59     1     0     0
SMALL
bcc


@<TRIPOS>ATOM
      1 F55          0.0000     0.0000     0.0000 f          1 P85      -0.138900
      2 C26          1.3520     0.0000     0.0000 ca         1 P85       0.140900
      3 C27          2.0440     0.0000     1.1990 ca         1 P85      -0.170000
      4 C28          3.4260    -0.0010     1.1980 ca         1 P85      -0.088000
      5 C25          2.0450    -0.0040    -1.1990 ca         1 P85      -0.170000
      6 C24          3.4260    -0.0040    -1.1970 ca         1 P85      -0.088000
      7 C23          4.1170     0.0010     0.0000 ca         1 P85      -0.134300
      8 C22          5.6240     0.0010    -0.0010 c3         1 P85       0.161300
      9 N21          6.1130    -1.3800    -0.0010 ns         1 P85      -0.587900
     10 C19          7.4380    -1.6260    -0.0020 c          1 P85       0.660100
     11 O20          8.2250    -0.7040    -0.0000 o          1 P85      -0.607100
     12 C16          7.9410    -3.0470    -0.0020 c3         1 P85      -0.147700
     13 C17          7.4380    -3.7670    -1.2560 c3         1 P85      -0.065400
     14 C18          8.0020    -5.1890    -1.2820 c3         1 P85       0.158800
     15 N13          9.4680    -5.1360    -1.2820 n3         1 P85      -0.729600
     16 C14          9.9760    -4.4900    -0.0650 c3         1 P85       0.158800
     17 C15          9.4720    -3.0470    -0.0020 c3         1 P85      -0.065400
     18 C11         10.0440    -6.4760    -1.4470 c3         1 P85       0.216800
     19 C12         11.5670    -6.3990    -1.3160 c3         1 P85      -0.090100
     20 C1           9.6840    -7.0150    -2.8070 ca         1 P85      -0.078300
     21 C2           9.4370    -6.1610    -3.8380 ca         1 P85      -0.107000
     22 C3           9.1020    -6.6400    -5.1030 ca         1 P85      -0.130000
     23 C4           9.0120    -7.9750    -5.3450 ca         1 P85      -0.118000
     24 C5           9.2610    -8.8890    -4.3070 ca         1 P85      -0.037000
     25 C6           9.6060    -8.4020    -3.0210 ca         1 P85      -0.030000
     26 C10          9.1840   -10.2750    -4.5200 ca         1 P85      -0.113000
     27 C9           9.4410   -11.1300    -3.4930 ca         1 P85      -0.129000
     28 C8           9.7800   -10.6520    -2.2280 ca         1 P85      -0.124000
     29 C7           9.8540    -9.3150    -1.9820 ca         1 P85      -0.124000
     30 H271         1.5030    -0.0010     2.1380 ha         1 P85       0.148000
     31 H281         3.9680     0.0010     2.1350 ha         1 P85       0.142500
     32 H251         1.5040    -0.0080    -2.1380 ha         1 P85       0.148000
     33 H241         3.9690    -0.0050    -2.1350 ha         1 P85       0.142500
     34 H221         5.9860     0.5120     0.8840 h1         1 P85       0.060200
     35 H222         5.9850     0.5120    -0.8850 h1         1 P85       0.060200
     36 H211         5.4630    -2.1400     0.0470 hn         1 P85       0.316500
     37 H161         7.5800    -3.5640     0.8790 hc         1 P85       0.062700
     38 H172         6.3560    -3.8080    -1.2390 hc         1 P85       0.058950
     39 H171         7.7710    -3.2310    -2.1370 hc         1 P85       0.058950
     40 H182         7.6610    -5.7270    -0.4060 h1         1 P85       0.039200
     41 H181         7.6600    -5.6950    -2.1780 h1         1 P85       0.039200
     42 H141        11.0600    -4.4920    -0.0820 h1         1 P85       0.039200
     43 H142         9.6230    -5.0330     0.8040 h1         1 P85       0.039200
     44 H151         9.8330    -2.5780     0.9060 hc         1 P85       0.058950
     45 H152         9.8330    -2.5010    -0.8650 hc         1 P85       0.058950
     46 H111         9.6500    -7.1350    -0.6820 h1         1 P85       0.031700
     47 H123        12.0180    -7.2280    -1.8470 hc         1 P85       0.045033
     48 H122        11.8420    -6.4470    -0.2690 hc         1 P85       0.045033
     49 H121        11.9180    -5.4650    -1.7390 hc         1 P85       0.045033
     50 H21          9.5020    -5.0920    -3.6720 ha         1 P85       0.154000
     51 H31          8.9110    -5.9380    -5.9060 ha         1 P85       0.129000
     52 H41          8.7510    -8.3330    -6.3340 ha         1 P85       0.131000
     53 H101         8.9210   -10.6620    -5.4970 ha         1 P85       0.132000
     54 H91          9.3890   -12.1990    -3.6620 ha         1 P85       0.128000
     55 H81          9.9800   -11.3540    -1.4270 ha         1 P85       0.127000
     56 H71         10.1190    -8.9580    -0.9940 ha         1 P85       0.133000
@<TRIPOS>BOND
     1    27    28 ar
     2    27    26 ar
     3    28    29 ar
     4    26    24 ar
     5     1     2 1
     6     2     5 ar
     7     2     3 ar
     8    29    25 ar
     9     5     6 ar
    10    24    25 ar
    11    24    23 ar
    12     3     4 ar
    13    25    20 ar
    14    23    22 ar
    15     6     7 ar
    16     4     7 ar
    17     7     8 1
    18    20    18 1
    19    20    21 ar
    20    22    21 ar
    21     9     8 1
    22     9    10 1
    23    14    13 1
    24    14    15 1
    25    18    15 1
    26    18    19 1
    27    13    12 1
    28    12    10 1
    29    12    17 1
    30    15    16 1
    31    10    11 2
    32    16    17 1
    33     3    30 1
    34     4    31 1
    35     5    32 1
    36     6    33 1
    37     8    34 1
    38     8    35 1
    39     9    36 1
    40    12    37 1
    41    13    38 1
    42    13    39 1
    43    14    40 1
    44    14    41 1
    45    16    42 1
    46    16    43 1
    47    17    44 1
    48    17    45 1
    49    18    46 1
    50    19    47 1
    51    19    48 1
    52    19    49 1
    53    21    50 1
    54    22    51 1
    55    23    52 1
    56    26    53 1
    57    27    54 1
    58    28    55 1
    59    29    56 1
@<TRIPOS>SUBSTRUCTURE
     1 P85         1 TEMP              0 ****  ****    0 ROOT
