@<TRIPOS>MOLECULE
molecule
   45    46     1     0     0
SMALL
bcc


@<TRIPOS>ATOM
      1 C01          0.0000     0.0000     0.0000 ca         1 P86       0.023900
      2 C1          -0.0050     0.0040     2.3950 ca         1 P86      -0.104300
      3 N1          -0.7990     1.3700     4.2410 n3         1 P86      -0.715600
      4 O1           2.0600     0.0020     3.5750 oh         1 P86      -0.485100
      5 C02          1.3830     0.0000     0.0000 ca         1 P86      -0.043000
      6 C2          -0.7620     0.0050     3.6990 c3         1 P86       0.220100
      7 N2          -1.8560     5.1220     5.8480 n3         1 P86      -0.720600
      8 C03         -1.3170     1.3750     5.6150 c3         1 P86       0.162300
      9 C3          -0.6930     0.0020     1.1970 ca         1 P86      -0.062000
     10 C4           2.0750     0.0000     1.1950 ca         1 P86      -0.019100
     11 C7           1.3810     0.0010     2.3970 ca         1 P86       0.187100
     12 C8          -1.2060     2.7850     6.1980 c3         1 P86      -0.074400
     13 C10         -2.0070     3.7570     5.3270 c3         1 P86       0.166500
     14 C11         -2.6140     6.0830     5.0350 c3         1 P86       0.151800
     15 C12         -2.1620     7.5050     5.3710 c3         1 P86      -0.114600
     16 C13         -2.2580     5.1940     7.2590 c3         1 P86       0.151800
     17 C14         -3.6960     4.6920     7.4060 c3         1 P86      -0.114600
     18 C15         -1.4800     3.6960     3.8900 c3         1 P86      -0.074400
     19 C16         -1.5840     2.2590     3.3750 c3         1 P86       0.162300
     20 I1          -1.0470     0.0080    -1.8150 i          1 P86      -0.159900
     21 I2           4.1700    -0.0030     1.1940 i          1 P86      -0.152900
     22 H02          1.9240    -0.0010    -0.9390 ha         1 P86       0.154000
     23 H3          -1.7770     0.0020     1.1950 ha         1 P86       0.148000
     24 H21C        -1.7740    -0.3440     3.5290 h1         1 P86       0.043700
     25 H22C        -0.2670    -0.6520     4.4040 h1         1 P86       0.043700
     26 H031        -0.7370     0.6890     6.2200 h1         1 P86       0.033200
     27 H032        -2.3560     1.0690     5.6090 h1         1 P86       0.033200
     28 H161        -1.1970     2.2100     2.3650 h1         1 P86       0.033200
     29 H162        -2.6210     1.9480     3.3850 h1         1 P86       0.033200
     30 H1           2.7210    -0.6700     3.5570 ho         1 P86       0.427000
     31 H10         -3.0520     3.4730     5.3390 h1         1 P86       0.022700
     32 H111        -2.4350     5.8860     3.9840 h1         1 P86       0.045450
     33 H112        -3.6710     5.9800     5.2460 h1         1 P86       0.045450
     34 H131        -2.1980     6.2210     7.5990 h1         1 P86       0.045450
     35 H132        -1.5970     4.5770     7.8550 h1         1 P86       0.045450
     36 H81C        -1.6040     2.7910     7.2050 hc         1 P86       0.058450
     37 H82C        -0.1660     3.0880     6.2130 hc         1 P86       0.058450
     38 H151        -0.4440     4.0110     3.8730 hc         1 P86       0.058450
     39 H152        -2.0730     4.3490     3.2610 hc         1 P86       0.058450
     40 H121        -2.7580     7.8890     6.1910 hc         1 P86       0.037867
     41 H122        -1.1180     7.4940     5.6580 hc         1 P86       0.037867
     42 H123        -2.2920     8.1400     4.5030 hc         1 P86       0.037867
     43 H141        -3.6880     3.6860     7.8090 hc         1 P86       0.037867
     44 H142        -4.1790     4.6880     6.4360 hc         1 P86       0.037867
     45 H143        -4.2400     5.3450     8.0780 hc         1 P86       0.037867
@<TRIPOS>BOND
     1     1     5 ar
     2     1     9 ar
     3     1    20 1
     4     2     6 1
     5     2     9 ar
     6     2    11 ar
     7     3     6 1
     8     3     8 1
     9     3    19 1
    10     4    11 1
    11     5    10 ar
    12     7    13 1
    13     7    14 1
    14     7    16 1
    15     8    12 1
    16    10    11 ar
    17    10    21 1
    18    12    13 1
    19    13    18 1
    20    14    15 1
    21    16    17 1
    22    18    19 1
    23     5    22 1
    24     9    23 1
    25     6    24 1
    26     6    25 1
    27     8    26 1
    28     8    27 1
    29    19    28 1
    30    19    29 1
    31     4    30 1
    32    13    31 1
    33    14    32 1
    34    14    33 1
    35    16    34 1
    36    16    35 1
    37    12    36 1
    38    12    37 1
    39    18    38 1
    40    18    39 1
    41    15    40 1
    42    15    41 1
    43    15    42 1
    44    17    43 1
    45    17    44 1
    46    17    45 1
@<TRIPOS>SUBSTRUCTURE
     1 P86         1 TEMP              0 ****  ****    0 ROOT
