@<TRIPOS>MOLECULE
P86
   45    46     1     0     0
SMALL
bcc


@<TRIPOS>ATOM
      1 C01          0.0000     0.0000     0.0000 ca         1 P86       0.169900
      2 C1          -0.0050     0.0040     2.3950 ca         1 P86      -0.118300
      3 N1          -0.7990     1.3700     4.2410 n3         1 P86      -0.524600
      4 O1           2.0600     0.0020     3.5750 oh         1 P86      -0.466100
      5 C02          1.3830     0.0000     0.0000 ca         1 P86      -0.040000
      6 C2          -0.7620     0.0050     3.6990 c3         1 P86       0.223100
      7 N2          -1.8560     5.1220     5.8480 n3         1 P86      -0.531600
      8 C03         -1.3170     1.3750     5.6150 c3         1 P86       0.151300
      9 C3          -0.6930     0.0020     1.1970 ca         1 P86      -0.055000
     10 C4           2.0750     0.0000     1.1950 ca         1 P86       0.114900
     11 C7           1.3810     0.0010     2.3970 ca         1 P86       0.187100
     12 C8          -1.2060     2.7850     6.1980 c3         1 P86      -0.033900
     13 C10         -2.0070     3.7570     5.3270 c3         1 P86       0.121500
     14 C11         -2.6140     6.0830     5.0350 c3         1 P86       0.131800
     15 C12         -2.1620     7.5050     5.3710 c3         1 P86      -0.023600
     16 C13         -2.2580     5.1940     7.2590 c3         1 P86       0.131800
     17 C14         -3.6960     4.6920     7.4060 c3         1 P86      -0.023600
     18 C15         -1.4800     3.6960     3.8900 c3         1 P86      -0.033900
     19 C16         -1.5840     2.2590     3.3750 c3         1 P86       0.151300
     20 I1          -1.0470     0.0080    -1.8150 i          1 P86      -0.280900
     21 I2           4.1700    -0.0030     1.1940 i          1 P86      -0.258900
     22 H02          1.9240    -0.0010    -0.9390 ha         1 P86       0.131000
     23 H3          -1.7770     0.0020     1.1950 ha         1 P86       0.123000
     24 H21C        -1.7740    -0.3440     3.5290 h1         1 P86       0.015200
     25 H22C        -0.2670    -0.6520     4.4040 h1         1 P86       0.015200
     26 H031        -0.7370     0.6890     6.2200 h1         1 P86       0.009200
     27 H032        -2.3560     1.0690     5.6090 h1         1 P86       0.009200
     28 H161        -1.1970     2.2100     2.3650 h1         1 P86       0.009200
     29 H162        -2.6210     1.9480     3.3850 h1         1 P86       0.009200
     30 H1           2.7210    -0.6700     3.5570 ho         1 P86       0.406000
     31 H10         -3.0520     3.4730     5.3390 h1         1 P86       0.012700
     32 H111        -2.4350     5.8860     3.9840 h1         1 P86       0.022950
     33 H112        -3.6710     5.9800     5.2460 h1         1 P86       0.022950
     34 H131        -2.1980     6.2210     7.5990 h1         1 P86       0.022950
     35 H132        -1.5970     4.5770     7.8550 h1         1 P86       0.022950
     36 H81C        -1.6040     2.7910     7.2050 hc         1 P86       0.032200
     37 H82C        -0.1660     3.0880     6.2130 hc         1 P86       0.032200
     38 H151        -0.4440     4.0110     3.8730 hc         1 P86       0.032200
     39 H152        -2.0730     4.3490     3.2610 hc         1 P86       0.032200
     40 H121        -2.7580     7.8890     6.1910 hc         1 P86       0.008367
     41 H122        -1.1180     7.4940     5.6580 hc         1 P86       0.008367
     42 H123        -2.2920     8.1400     4.5030 hc         1 P86       0.008367
     43 H141        -3.6880     3.6860     7.8090 hc         1 P86       0.008367
     44 H142        -4.1790     4.6880     6.4360 hc         1 P86       0.008367
     45 H143        -4.2400     5.3450     8.0780 hc         1 P86       0.008367
@<TRIPOS>BOND
     1     1     5 ar  
     2     1     9 ar  
     3     1    20 1   
     4     2     6 1   
     5     2     9 ar  
     6     2    11 ar  
     7     3     6 1   
     8     3     8 1   
     9     3    19 1   
    10     4    11 1   
    11     4    30 1   
    12     5    10 ar  
    13     5    22 1   
    14     6    24 1   
    15     6    25 1   
    16     7    13 1   
    17     7    14 1   
    18     7    16 1   
    19     8    12 1   
    20     8    26 1   
    21     8    27 1   
    22     9    23 1   
    23    10    11 ar  
    24    10    21 1   
    25    12    13 1   
    26    12    36 1   
    27    12    37 1   
    28    13    18 1   
    29    13    31 1   
    30    14    15 1   
    31    14    32 1   
    32    14    33 1   
    33    15    40 1   
    34    15    41 1   
    35    15    42 1   
    36    16    17 1   
    37    16    34 1   
    38    16    35 1   
    39    17    43 1   
    40    17    44 1   
    41    17    45 1   
    42    18    19 1   
    43    18    38 1   
    44    18    39 1   
    45    19    28 1   
    46    19    29 1   
@<TRIPOS>SUBSTRUCTURE
     1 P86         1 TEMP              0 ****  ****    0 ROOT
