@<TRIPOS>MOLECULE
P87
   33    34     1     0     0
SMALL
bcc


@<TRIPOS>ATOM
      1 O1           0.0000     0.0000     0.0000 o          1 P87      -0.648100
      2 C6           1.2130     0.0000     0.0000 c          1 P87       0.602100
      3 N            1.8860     0.0000     1.1680 n          1 P87      -0.169800
      4 C10          1.2790    -0.0000     2.5070 c3         1 P87       0.054500
      5 C9           2.4320     0.0270     3.5330 c3         1 P87      -0.033900
      6 C8           3.6120     0.6110     2.7130 c3         1 P87      -0.033900
      7 C7           3.3530    -0.0070     1.3140 c3         1 P87       0.054500
      8 C5           1.9670    -0.0070    -1.3040 c3         1 P87      -0.103400
      9 C4           0.9730    -0.0130    -2.4680 c3         1 P87      -0.007400
     10 C1           1.7390    -0.0200    -3.7920 c3         1 P87      -0.090700
     11 C2           2.4310     1.3410    -4.0250 c3         1 P87       0.202400
     12 O            2.3130     1.5790    -5.4440 os         1 P87      -0.404600
     13 C3           0.9800     1.1460    -5.7920 c3         1 P87       0.206400
     14 C            0.7630    -0.1520    -4.9820 c3         1 P87      -0.058400
     15 H1           0.6870    -0.8980     2.6420 h1         1 P87       0.020200
     16 H2           0.6580     0.8790     2.6290 h1         1 P87       0.020200
     17 H3           2.1870     0.6760     4.3650 hc         1 P87       0.024700
     18 H4           2.6630    -0.9750     3.8740 hc         1 P87       0.024700
     19 H5           4.5620     0.2770     3.1130 hc         1 P87       0.024700
     20 H6           3.5560     1.6920     2.6740 hc         1 P87       0.024700
     21 H7           3.8100     0.6020     0.5440 h1         1 P87       0.020200
     22 H8           3.7300    -1.0220     1.2760 h1         1 P87       0.020200
     23 H9           2.5900     0.8770    -1.3660 hc         1 P87       0.030200
     24 H10          2.5890    -0.8920    -1.3570 hc         1 P87       0.030200
     25 H11          0.3500     0.8720    -2.4160 hc         1 P87       0.034200
     26 H12          0.3500    -0.8970    -2.4070 hc         1 P87       0.034200
     27 H13          2.4680    -0.8210    -3.8120 hc         1 P87       0.034700
     28 H14          1.9220     2.1210    -3.4700 h1         1 P87       0.009700
     29 H15          3.4750     1.2860    -3.7390 h1         1 P87       0.009700
     30 H16          0.9160     0.9400    -6.8540 h1         1 P87       0.008200
     31 H17          0.2540     1.8960    -5.5020 h1         1 P87       0.008200
     32 H18          1.0130    -1.0180    -5.5820 hc         1 P87       0.025200
     33 H19         -0.2590    -0.2090    -4.6270 hc         1 P87       0.025200
@<TRIPOS>BOND
     1     1     2 2   
     2     2     3 1   
     3     2     8 1   
     4     3     4 1   
     5     3     7 1   
     6     4     5 1   
     7     4    15 1   
     8     4    16 1   
     9     5     6 1   
    10     5    17 1   
    11     5    18 1   
    12     6     7 1   
    13     6    19 1   
    14     6    20 1   
    15     7    21 1   
    16     7    22 1   
    17     8     9 1   
    18     8    23 1   
    19     8    24 1   
    20     9    10 1   
    21     9    25 1   
    22     9    26 1   
    23    10    11 1   
    24    10    14 1   
    25    10    27 1   
    26    11    12 1   
    27    11    28 1   
    28    11    29 1   
    29    12    13 1   
    30    13    14 1   
    31    13    30 1   
    32    13    31 1   
    33    14    32 1   
    34    14    33 1   
@<TRIPOS>SUBSTRUCTURE
     1 P87         1 TEMP              0 ****  ****    0 ROOT
