@<TRIPOS>MOLECULE
P88
   64    66     1     0     0
SMALL
bcc


@<TRIPOS>ATOM
      1 C1          0.9740   -0.2510    0.6650 c3        1 P88     -0.208500
      2 N1          3.2370   -3.5130   -0.7300 n2        1 P88     -0.016000
      3 O1          2.7770   -2.6350    0.1330 os        1 P88     -0.059000
      4 C2          2.4800   -0.2040    0.4880 c3        1 P88     -0.052000
      5 N2          6.9020    8.3790   -8.1220 n2        1 P88     -0.111000
      6 O2          4.2870    0.8080   -1.8400 os        1 P88     -0.225000
      7 C3          3.1790   -0.2310    1.8350 c3        1 P88     -0.208500
      8 O3          8.6530   11.1080   -7.9930 o         1 P88     -0.539000
      9 C4          2.9420   -1.3180   -0.3650 c2        1 P88      0.010000
     10 O4          9.6010    9.6270   -9.3920 o         1 P88     -0.539000
     11 C5          3.7210   -2.8580   -1.8120 c2        1 P88     -0.038000
     12 C6          3.5410   -1.4140   -1.6090 c2        1 P88     -0.159000
     13 C7          3.9050   -0.3650   -2.5760 c3        1 P88      0.043000
     14 C8          4.9090    1.7910   -2.5930 ca        1 P88      0.059000
     15 C9          5.6130    2.7540   -1.8490 ca        1 P88     -0.176000
     16 C10         6.2340    3.8040   -2.5130 ca        1 P88     -0.099500
     17 C11         6.1730    3.9120   -3.9120 cp        1 P88     -0.031000
     18 C12         5.4670    2.9410   -4.6350 ca        1 P88     -0.099500
     19 C13         4.8330    1.8830   -3.9870 ca        1 P88     -0.176000
     20 C14         6.8340    5.0150   -4.6030 cq        1 P88     -0.087000
     21 C15         8.1160    5.4550   -4.1620 ca        1 P88     -0.122000
     22 C16         8.7640    6.4820   -4.7970 ca        1 P88     -0.124000
     23 C17         8.1690    7.1380   -5.9120 ca        1 P88      0.000000
     24 C18         8.7880    8.2010   -6.6090 c2        1 P88     -0.185000
     25 C19         8.1400    8.7920   -7.6950 c2        1 P88     -0.021000
     26 C20         6.3170    7.3840   -7.4730 c2        1 P88     -0.067000
     27 C21         6.8890    6.7030   -6.3500 ca        1 P88     -0.127000
     28 C22         6.2390    5.6380   -5.6830 ca        1 P88     -0.072000
     29 C23         8.8510    9.9500   -8.4370 c2        1 P88      0.385000
     30 C24         4.3180   -3.4830   -2.9580 c2        1 P88      0.087000
     31 C25         4.5150   -4.8090   -3.2470 c1        1 P88     -0.086000
     32 C26         5.0630   -5.5260   -4.2680 c2        1 P88     -0.163000
     33 C27         5.5780   -4.7660   -5.3410 c2        1 P88     -0.085000
     34 C28         5.4630   -3.3650   -5.2190 c2        1 P88     -0.163000
     35 C29         4.8650   -2.9080   -4.0810 c1        1 P88     -0.086000
     36 CL1         2.7940   -6.5940    0.2370 cl        1 P88      0.584500
     37 CL2         1.8580   -0.3740   -6.4300 cl        1 P88      0.584500
     38 H1          0.6430    0.6050    1.3000 hc        1 P88      0.082500
     39 H1A         0.6690   -1.2050    1.1590 hc        1 P88      0.082500
     40 H1B         0.4620   -0.1820   -0.3250 hc        1 P88      0.082500
     41 H2          2.7600    0.7530   -0.0480 hc        1 P88      0.136000
     42 H3          2.9540   -1.1840    2.3720 hc        1 P88      0.082500
     43 H3A         2.8260    0.6260    2.4580 hc        1 P88      0.082500
     44 H3B         4.2840   -0.1460    1.7020 hc        1 P88      0.082500
     45 H7          4.7560   -0.7070   -3.2290 h1        1 P88      0.104000
     46 H7A         3.0180   -0.1090   -3.2220 h1        1 P88      0.104000
     47 H9          5.6580    2.6670   -0.7550 ha        1 P88      0.137000
     48 H10         6.7790    4.5670   -1.9340 ha        1 P88      0.139500
     49 H12         5.4160    3.0140   -5.7320 ha        1 P88      0.139500
     50 H13         4.2810    1.1370   -4.5760 ha        1 P88      0.137000
     51 H15         8.5820    4.9450   -3.3060 ha        1 P88      0.119000
     52 H16         9.7550    6.8190   -4.4600 ha        1 P88      0.130000
     53 H18         9.7770    8.5650   -6.3010 ha        1 P88      0.146000
     54 H20         5.3220    7.0740   -7.8370 h4        1 P88      0.134000
     55 H22         5.2460    5.3220   -6.0360 ha        1 P88      0.122000
     56 H26         5.1050   -6.6230   -4.2610 ha        1 P88      0.178500
     57 H27         6.0420   -5.2380   -6.2170 ha        1 P88      0.144000
     58 H28         5.8390   -2.6850   -5.9960 ha        1 P88      0.178500
     59 HL1         3.7630   -5.9090    0.8620 ha        1 P88     -0.194667
     60 HL1A        1.7000   -5.9390   -0.1790 ha        1 P88     -0.194667
     61 HL1B        2.9090   -7.9250    0.0580 ha        1 P88     -0.194667
     62 HL2         2.5830   -0.0390   -5.3460 ha        1 P88     -0.194667
     63 HL2A        0.7310    0.2950   -6.7160 ha        1 P88     -0.194667
     64 HL2B        2.2500   -1.3800   -7.2300 ha        1 P88     -0.194667
@<TRIPOS>BOND
     1    1    4 1
     2    1   38 1
     3    1   39 1
     4    1   40 1
     5    2    3 1
     6    2   11 1
     7    3    9 1
     8    4    7 1
     9    4    9 1
    10    4   41 1
    11    5   25 1
    12    5   26 1
    13    6   13 1
    14    6   14 1
    15    7   42 1
    16    7   43 1
    17    7   44 1
    18    8   29 1
    19    9   12 1
    20   10   29 1
    21   11   12 1
    22   11   30 1
    23   12   13 1
    24   13   45 1
    25   13   46 1
    26   14   15 1
    27   14   19 1
    28   15   16 1
    29   15   47 1
    30   16   17 1
    31   16   48 1
    32   17   18 1
    33   17   20 1
    34   18   19 1
    35   18   49 1
    36   19   50 1
    37   20   21 1
    38   20   28 1
    39   21   22 1
    40   21   51 1
    41   22   23 1
    42   22   52 1
    43   23   24 1
    44   23   27 1
    45   24   25 1
    46   24   53 1
    47   25   29 1
    48   26   27 1
    49   26   54 1
    50   27   28 1
    51   28   55 1
    52   30   31 1
    53   30   35 1
    54   31   32 1
    55   32   33 1
    56   32   56 1
    57   33   34 1
    58   33   57 1
    59   34   35 1
    60   34   58 1
    61   36   59 1
    62   36   60 1
    63   36   61 1
    64   37   62 1
    65   37   63 1
    66   37   64 1
@<TRIPOS>SUBSTRUCTURE
     1 P88         1 TEMP              0 ****  ****    0 ROOT
