@<TRIPOS>MOLECULE
P89
   57    58     1     0     0
SMALL
bcc


@<TRIPOS>ATOM
      1 CAA          0.0000     0.0000     0.0000 c3         1 P89      -0.112000
      2 CAD          1.5300     0.0000     0.0000 c3         1 P89      -0.108000
      3 CAE          2.0400     0.0000     1.4420 c3         1 P89      -0.109000
      4 CAF          3.5700     0.0000     1.4420 c3         1 P89      -0.108000
      5 CAG          4.0800    -0.0010     2.8850 c3         1 P89      -0.109000
      6 CAH          5.6100    -0.0010     2.8850 c3         1 P89      -0.107000
      7 CAI          6.1200    -0.0020     4.3290 c3         1 P89      -0.110000
      8 CAJ          7.6490    -0.0020     4.3290 c3         1 P89      -0.100000
      9 CAK          8.1600    -0.0030     5.7710 c3         1 P89      -0.157000
     10 CAL          9.6670    -0.0030     5.7700 c2         1 P89       0.261000
     11 OAC         10.2700    -0.0010     4.7250 o          1 P89      -0.303000
     12 CA          10.4200    -0.0030     7.0770 c3         1 P89      -0.078000
     13 N4A         11.8600    -0.0030     6.8090 n2         1 P89      -0.107000
     14 C4A         12.5820     1.0110     7.1570 c2         1 P89      -0.324000
     15 C4          14.0330     1.0120     6.8870 c3         1 P89      -0.225000
     16 C3          14.6500    -0.0760     6.2480 c2         1 P89       0.046000
     17 O3          13.9210    -1.1550     5.8650 oh         1 P89      -0.233000
     18 C2          16.0170    -0.0300     6.0170 c2         1 P89      -0.196000
     19 C2A         16.6960    -1.1880     5.3330 c3         1 P89      -0.045000
     20 N1          16.7280     1.0160     6.3860 n2         1 P89      -0.033000
     21 C6          16.1860     2.0560     6.9880 c2         1 P89      -0.095000
     22 C5          14.8340     2.1000     7.2550 c2         1 P89       0.029000
     23 C5A         14.2280     3.2990     7.9380 c3         1 P89       0.157000
     24 OP4         15.2500     4.2620     8.2050 os         1 P89      -0.644000
     25 P           14.9580     5.6700     8.9290 p5         1 P89       0.916500
     26 OP2         14.4680     5.4060    10.4390 o          1 P89      -0.725167
     27 OP3         16.3060     6.5520     8.9480 o          1 P89      -0.725167
     28 OP1         13.9040     6.3970     8.1880 o          1 P89      -0.725167
     29 H1          -0.3610     0.8870     0.5060 hc         1 P89       0.036667
     30 H2          -0.3610    -0.0050    -1.0210 hc         1 P89       0.036667
     31 H3          -0.3610    -0.8820     0.5150 hc         1 P89       0.036667
     32 H4           1.8910     0.8840    -0.5110 hc         1 P89       0.051000
     33 H5           1.8910    -0.8840    -0.5110 hc         1 P89       0.051000
     34 H6           1.6790    -0.8840     1.9530 hc         1 P89       0.052500
     35 H7           1.6790     0.8840     1.9530 hc         1 P89       0.052500
     36 H8           3.9310     0.8850     0.9320 hc         1 P89       0.054000
     37 H9           3.9310    -0.8840     0.9310 hc         1 P89       0.054000
     38 H10          3.7190    -0.8860     3.3950 hc         1 P89       0.052000
     39 H11          3.7190     0.8830     3.3970 hc         1 P89       0.052000
     40 H12          5.9710     0.8830     2.3750 hc         1 P89       0.055500
     41 H13          5.9710    -0.8860     2.3740 hc         1 P89       0.055500
     42 H14          5.7580    -0.8860     4.8390 hc         1 P89       0.049500
     43 H15          5.7580     0.8830     4.8400 hc         1 P89       0.049500
     44 H16          8.0100     0.8830     3.8180 hc         1 P89       0.067000
     45 H17          8.0100    -0.8860     3.8170 hc         1 P89       0.067000
     46 H18          7.7990    -0.8870     6.2810 hc         1 P89       0.068000
     47 H19          7.7990     0.8820     6.2820 hc         1 P89       0.068000
     48 H20         10.1580     0.8810     7.6450 h1         1 P89       0.065000
     49 H21         10.1580    -0.8880     7.6440 h1         1 P89       0.065000
     50 H22         13.3140     0.4730     7.7470 DU         1 P89       0.333000
     51 H23         14.0200    -1.2890     4.9370 ho         1 P89       0.195000
     52 H24         17.7690    -1.0460     5.3610 hc         1 P89       0.035333
     53 H25         16.4410    -2.1090     5.8440 hc         1 P89       0.035333
     54 H26         16.3660    -1.2440     4.3030 hc         1 P89       0.035333
     55 H27         16.8130     2.8930     7.2710 h4         1 P89       0.180000
     56 H28         13.4760     3.7390     7.2940 h1         1 P89       0.057500
     57 H29         13.7700     2.9910     8.8700 h1         1 P89       0.057500
@<TRIPOS>BOND
     1     1     2 1   
     2     1    29 1   
     3     1    30 1   
     4     1    31 1   
     5     2     3 1   
     6     2    32 1   
     7     2    33 1   
     8     3     4 1   
     9     3    34 1   
    10     3    35 1   
    11     4     5 1   
    12     4    36 1   
    13     4    37 1   
    14     5     6 1   
    15     5    38 1   
    16     5    39 1   
    17     6     7 1   
    18     6    40 1   
    19     6    41 1   
    20     7     8 1   
    21     7    42 1   
    22     7    43 1   
    23     8     9 1   
    24     8    44 1   
    25     8    45 1   
    26     9    10 1   
    27     9    46 1   
    28     9    47 1   
    29    10    11 1   
    30    10    12 1   
    31    12    13 1   
    32    12    48 1   
    33    12    49 1   
    34    13    14 1   
    35    14    15 1   
    36    14    50 1   
    37    15    16 1   
    38    15    22 1   
    39    15    50 1   
    40    16    17 1   
    41    16    18 1   
    42    17    51 1   
    43    18    19 1   
    44    18    20 1   
    45    19    52 1   
    46    19    53 1   
    47    19    54 1   
    48    20    21 1   
    49    21    22 1   
    50    21    55 1   
    51    22    23 1   
    52    23    24 1   
    53    23    56 1   
    54    23    57 1   
    55    24    25 1   
    56    25    26 1   
    57    25    27 1   
    58    25    28 1   
@<TRIPOS>SUBSTRUCTURE
     1 P89         1 TEMP              0 ****  ****    0 ROOT
