@<TRIPOS>MOLECULE
molecule
   57    57     1     0     0
SMALL
bcc


@<TRIPOS>ATOM
      1 CAA          0.0000     0.0000     0.0000 c3         1 P89      -0.092100
      2 CAD          1.5300     0.0000     0.0000 c3         1 P89      -0.084400
      3 CAE          2.0400     0.0000     1.4420 c3         1 P89      -0.081400
      4 CAF          3.5700     0.0000     1.4420 c3         1 P89      -0.082400
      5 CAG          4.0800    -0.0010     2.8850 c3         1 P89      -0.082400
      6 CAH          5.6100    -0.0010     2.8850 c3         1 P89      -0.080400
      7 CAI          6.1200    -0.0020     4.3290 c3         1 P89      -0.084400
      8 CAJ          7.6490    -0.0020     4.3290 c3         1 P89      -0.071400
      9 CAK          8.1600    -0.0030     5.7710 c3         1 P89      -0.186400
     10 CAL          9.6670    -0.0030     5.7700 c          1 P89       0.557100
     11 OAC         10.2700    -0.0010     4.7250 o          1 P89      -0.491100
     12 CA          10.4200    -0.0030     7.0770 c3         1 P89       0.013800
     13 N4A         11.8600    -0.0030     6.8090 n2         1 P89      -0.610900
     14 C4A         12.5820     1.0110     7.1570 ce         1 P89       0.511800
     15 C4          14.0330     1.0120     6.8870 ca         1 P89      -0.173900
     16 C3          14.6500    -0.0760     6.2480 ca         1 P89       0.007800
     17 O3          13.9210    -1.1550     5.8650 oh         1 P89      -0.499100
     18 C2          16.0170    -0.0300     6.0170 ca         1 P89       0.341600
     19 C2A         16.6960    -1.1880     5.3330 c3         1 P89      -0.125400
     20 N1          16.7280     1.0160     6.3860 nb         1 P89      -0.694000
     21 C6          16.1860     2.0560     6.9880 ca         1 P89       0.435200
     22 C5          14.8340     2.1000     7.2550 ca         1 P89      -0.126600
     23 C5A         14.2280     3.2990     7.9380 c3         1 P89       0.244700
     24 OP4         15.2500     4.2620     8.2050 os         1 P89      -0.572200
     25 P           14.9580     5.6700     8.9290 p5         1 P89       1.164900
     26 OP2         14.4680     5.4060    10.4390 o          1 P89      -0.900833
     27 OP3         16.3060     6.5520     8.9480 o          1 P89      -0.900833
     28 OP1         13.9040     6.3970     8.1880 o          1 P89      -0.900833
     29 H1          -0.3610     0.0070    -1.0210 hc         1 P89       0.029700
     30 H2          -0.3610     0.8810     0.5170 hc         1 P89       0.029700
     31 H3          -0.3610    -0.8880     0.5040 hc         1 P89       0.029700
     32 H4           1.8910    -0.8840    -0.5110 hc         1 P89       0.039700
     33 H5           1.8910     0.8840    -0.5110 hc         1 P89       0.039700
     34 H6           1.6790    -0.8840     1.9530 hc         1 P89       0.039700
     35 H7           1.6790     0.8840     1.9530 hc         1 P89       0.039700
     36 H8           3.9310    -0.8840     0.9310 hc         1 P89       0.041700
     37 H9           3.9310     0.8850     0.9320 hc         1 P89       0.041700
     38 H10          3.7190    -0.8860     3.3950 hc         1 P89       0.039200
     39 H11          3.7190     0.8830     3.3970 hc         1 P89       0.039200
     40 H12          5.9710     0.8830     2.3750 hc         1 P89       0.043700
     41 H13          5.9710    -0.8860     2.3740 hc         1 P89       0.043700
     42 H14          5.7580     0.8830     4.8400 hc         1 P89       0.036700
     43 H15          5.7580    -0.8860     4.8390 hc         1 P89       0.036700
     44 H16          8.0100    -0.8860     3.8170 hc         1 P89       0.056200
     45 H17          8.0100     0.8830     3.8180 hc         1 P89       0.056200
     46 H18          7.7990    -0.8870     6.2810 hc         1 P89       0.058200
     47 H19          7.7990     0.8820     6.2820 hc         1 P89       0.058200
     48 H20         10.1580     0.8810     7.6450 h1         1 P89       0.054200
     49 H21         10.1580    -0.8880     7.6440 h1         1 P89       0.054200
     50 H22         12.1220     1.8610     7.6460 h4         1 P89      -0.002200
     51 H23         13.9970    -1.8330     6.5160 ho         1 P89       0.400000
     52 H24         16.1880    -1.4060     4.4010 hc         1 P89       0.034700
     53 H25         16.6580    -2.0590     5.9760 hc         1 P89       0.034700
     54 H26         17.7290    -0.9330     5.1310 hc         1 P89       0.034700
     55 H27         16.8130     2.8930     7.2710 h4         1 P89       0.085100
     56 H28         13.7700     2.9910     8.8700 h1         1 P89       0.036200
     57 H29         13.4760     3.7390     7.2940 h1         1 P89       0.036200
@<TRIPOS>BOND
     1    19    18 1
     2    17    16 1
     3    18    16 ar
     4    18    20 ar
     5    16    15 ar
     6    20    21 ar
     7    15    14 1
     8    15    22 ar
     9    13    14 2
    10    13    12 1
    11    11    10 2
    12    21    22 ar
    13     4     5 1
    14     4     3 1
    15     5     6 1
    16    10    12 1
    17    10     9 1
    18     6     7 1
    19     8     7 1
    20     8     9 1
    21    22    23 1
    22     3     2 1
    23    23    24 1
    24    24    25 1
    25     2     1 1
    26    28    25 1
    27    25    27 1
    28    25    26 1
    29     1    29 1
    30     1    30 1
    31     1    31 1
    32     2    32 1
    33     2    33 1
    34     3    34 1
    35     3    35 1
    36     4    36 1
    37     4    37 1
    38     5    38 1
    39     5    39 1
    40     6    40 1
    41     6    41 1
    42     7    42 1
    43     7    43 1
    44     8    44 1
    45     8    45 1
    46     9    46 1
    47     9    47 1
    48    12    48 1
    49    12    49 1
    50    14    50 1
    51    17    51 1
    52    19    52 1
    53    19    53 1
    54    19    54 1
    55    21    55 1
    56    23    56 1
    57    23    57 1
@<TRIPOS>SUBSTRUCTURE
     1 P89         1 TEMP              0 ****  ****    0 ROOT
