@<TRIPOS>MOLECULE
P8D
   27    26     1     0     0
SMALL
bcc


@<TRIPOS>ATOM
      1 C1           0.0000     0.0000     0.0000 c3         1 P8D       0.047900
      2 N1           2.0200    -1.2000    -0.6910 nz         1 P8D       0.112400
      3 C2           1.5300     0.0000     0.0000 c3         1 P8D      -0.127700
      4 P3           2.1360     0.0000     1.7200 p5         1 P8D       0.247400
      5 C4           3.9590    -0.0000     1.7210 c3         1 P8D       0.025400
      6 C5           4.4680    -0.1260     3.1580 c3         1 P8D      -0.104700
      7 C6           4.2870    -1.5460     3.6330 c          1 P8D       0.993600
      8 C7           5.9520     0.2440     3.2090 c3         1 P8D      -0.103400
      9 C8           6.4230     0.2400     4.6400 c          1 P8D       0.960600
     10 O31          1.6420    -1.2080     2.4170 o          1 P8D      -0.543500
     11 O32          1.6000     1.3140     2.4780 o          1 P8D      -0.543500
     12 O61          4.6670    -1.8910     4.8730 o          1 P8D      -0.906800
     13 O62          3.8030    -2.3710     2.8970 o          1 P8D      -0.906800
     14 O81          7.7000     0.5370     4.9280 o          1 P8D      -0.896800
     15 O82          5.6510    -0.0320     5.5290 o          1 P8D      -0.896800
     16 H1          -0.3610     0.8590     0.5520 hc         1 P8D       0.007700
     17 H1A         -0.3610     0.0490    -1.0200 hc         1 P8D       0.007700
     18 H1B         -0.3610    -0.9080     0.4680 hc         1 P8D       0.007700
     19 HN1          1.8630    -2.0040    -0.1150 hn         1 P8D       0.191800
     20 HN1A         1.5300    -1.3100    -1.5570 hn         1 P8D       0.191800
     21 H2           1.8910     0.8840    -0.5110 hx         1 P8D       0.062700
     22 H4           4.3200    -0.8370     1.1360 hc         1 P8D      -0.012800
     23 H4A          4.3200     0.9260     1.2900 hc         1 P8D      -0.012800
     24 H5           3.9070     0.5430     3.8000 hc         1 P8D       0.060700
     25 H7           6.0930     1.2310     2.7860 hc         1 P8D      -0.026300
     26 H7A          6.5240    -0.4780     2.6390 hc         1 P8D      -0.026300
     27 H13          2.9990    -1.1030    -0.8750 hn         1 P8D       0.191800
@<TRIPOS>BOND
     1     1     3 1   
     2     1    16 1   
     3     1    17 1   
     4     1    18 1   
     5     2     3 1   
     6     2    19 1   
     7     2    20 1   
     8     2    27 1   
     9     3     4 1   
    10     3    21 1   
    11     4     5 1   
    12     4    10 1   
    13     4    11 1   
    14     5     6 1   
    15     5    22 1   
    16     5    23 1   
    17     6     7 1   
    18     6     8 1   
    19     6    24 1   
    20     7    12 1   
    21     7    13 1   
    22     8     9 1   
    23     8    25 1   
    24     8    26 1   
    25     9    14 1   
    26     9    15 1   
@<TRIPOS>SUBSTRUCTURE
     1 P8D         1 TEMP              0 ****  ****    0 ROOT
