@<TRIPOS>MOLECULE
molecule
   27    26     1     0     0
SMALL
bcc


@<TRIPOS>ATOM
      1 C1           0.0000     0.0000     0.0000 c3         1 P8D      -0.083100
      2 N1           2.0200    -1.2000    -0.6910 nz         1 P8D      -0.774600
      3 C2           1.5300     0.0000     0.0000 c3         1 P8D      -0.032700
      4 P3           2.1360     0.0000     1.7200 p5         1 P8D       0.801400
      5 C4           3.9590    -0.0000     1.7210 c3         1 P8D      -0.204600
      6 C5           4.4680    -0.1260     3.1580 c3         1 P8D      -0.122700
      7 C6           4.2870    -1.5460     3.6330 c          1 P8D       0.905600
      8 C7           5.9520     0.2440     3.2090 c3         1 P8D      -0.148400
      9 C8           6.4230     0.2400     4.6400 c          1 P8D       0.883600
     10 O31          1.6420    -1.2080     2.4170 o          1 P8D      -0.712500
     11 O32          1.6000     1.3140     2.4780 o          1 P8D      -0.712500
     12 O61          4.6670    -1.8910     4.8730 o          1 P8D      -0.856800
     13 O62          3.8030    -2.3710     2.8970 o          1 P8D      -0.856800
     14 O81          7.7000     0.5370     4.9280 o          1 P8D      -0.852300
     15 O82          5.6510    -0.0320     5.5290 o          1 P8D      -0.852300
     16 H1          -0.3610     0.8590     0.5520 hc         1 P8D       0.052367
     17 H1A         -0.3610     0.0490    -1.0200 hc         1 P8D       0.052367
     18 H1B         -0.3610    -0.9080     0.4680 hc         1 P8D       0.052367
     19 HN1          1.8630    -2.0040    -0.1150 hn         1 P8D       0.432800
     20 HN1A         1.5300    -1.3100    -1.5570 hn         1 P8D       0.432800
     21 H2           1.8910     0.8840    -0.5110 hx         1 P8D       0.082700
     22 H4           4.3200    -0.8370     1.1360 hc         1 P8D       0.006700
     23 H4A          4.3200     0.9260     1.2900 hc         1 P8D       0.006700
     24 H5           3.9070     0.5430     3.8000 hc         1 P8D       0.078700
     25 H7           6.0930     1.2310     2.7860 hc         1 P8D      -0.005800
     26 H7A          6.5240    -0.4780     2.6390 hc         1 P8D      -0.005800
     27 H13          2.9990    -1.1030    -0.8750 hn         1 P8D       0.432800
@<TRIPOS>BOND
     1     1     3 1
     2     1    16 1
     3     1    17 1
     4     1    18 1
     5     2     3 1
     6     2    19 1
     7     2    20 1
     8     3     4 1
     9     3    21 1
    10     4     5 1
    11     4    10 1
    12     4    11 1
    13     5     6 1
    14     5    22 1
    15     5    23 1
    16     6     7 1
    17     6     8 1
    18     6    24 1
    19     7    12 1
    20     7    13 1
    21     8     9 1
    22     8    25 1
    23     8    26 1
    24     9    14 1
    25     9    15 1
    26    27     2 1
@<TRIPOS>SUBSTRUCTURE
     1 P8D         1 TEMP              0 ****  ****    0 ROOT
