@<TRIPOS>MOLECULE
P8H
   40    42     1     0     0
SMALL
bcc


@<TRIPOS>ATOM
      1 C1           0.0000     0.0000     0.0000 ca         1 P8H      -0.106200
      2 C2           1.3840     0.0000     0.0000 ca         1 P8H       0.442200
      3 N3           2.0650     0.0000     1.1310 nb         1 P8H      -0.578000
      4 C4           1.4670    -0.0020     2.3030 ca         1 P8H       0.464200
      5 C5           0.0740    -0.0020     2.3900 ca         1 P8H      -0.261900
      6 C6          -0.6760    -0.0010     1.2080 ca         1 P8H      -0.041000
      7 C7          -0.5970    -0.0040     3.7070 c          1 P8H       0.615700
      8 Br8         -0.9560     0.0090    -1.6310 br         1 P8H      -0.100100
      9 O9          -0.2740    -0.8150     4.5530 o          1 P8H      -0.637100
     10 N10         -1.5680     0.8940     3.9700 n          1 P8H      -0.142800
     11 C11         -2.0270     1.8270     2.9310 c3         1 P8H       0.037000
     12 C12         -1.9340     3.2550     3.4760 c3         1 P8H      -0.048400
     13 C13         -2.1900     0.9560     5.2990 c3         1 P8H       0.037000
     14 C14         -2.0960     2.3930     5.8220 c3         1 P8H      -0.048400
     15 C15         -2.7110     3.3480     4.7900 c3         1 P8H       0.130500
     16 N16         -2.6520     4.7250     5.2980 n3         1 P8H      -0.537600
     17 C17         -3.3020     5.6690     4.3540 c3         1 P8H       0.146300
     18 C18         -3.6150     6.8990     5.2420 c3         1 P8H      -0.028400
     19 C19         -4.0220     6.2590     6.5890 c3         1 P8H      -0.028400
     20 C20         -3.3940     4.8530     6.5710 c3         1 P8H       0.146300
     21 H2           1.9170     0.0010    -0.9430 h4         1 P8H      -0.007900
     22 H4           2.0610    -0.0020     3.2080 h4         1 P8H      -0.002900
     23 H6          -1.7590    -0.0010     1.2380 ha         1 P8H       0.130000
     24 H11         -3.0550     1.6040     2.6720 h1         1 P8H       0.034950
     25 H11A        -1.3970     1.7320     2.0550 h1         1 P8H       0.034950
     26 H12         -2.3600     3.9440     2.7560 hc         1 P8H       0.033200
     27 H12A        -0.8950     3.5070     3.6520 hc         1 P8H       0.033200
     28 H13         -3.2310     0.6650     5.2260 h1         1 P8H       0.034950
     29 H13A        -1.6670     0.2890     5.9750 h1         1 P8H       0.034950
     30 H14         -2.6390     2.4730     6.7560 hc         1 P8H       0.033200
     31 H14A        -1.0560     2.6520     5.9790 hc         1 P8H       0.033200
     32 H15         -3.7430     3.0690     4.6160 h1         1 P8H       0.011700
     33 H17         -2.6200     5.9390     3.5560 h1         1 P8H       0.014700
     34 H17A        -4.2160     5.2420     3.9580 h1         1 P8H       0.014700
     35 H18         -2.7340     7.5170     5.3630 hc         1 P8H       0.019200
     36 H18A        -4.4380     7.4690     4.8270 hc         1 P8H       0.019200
     37 H19         -5.1000     6.1880     6.6590 hc         1 P8H       0.019200
     38 H19A        -3.6220     6.8370     7.4130 hc         1 P8H       0.019200
     39 H20         -4.1730     4.1010     6.6200 h1         1 P8H       0.014700
     40 H20A        -2.7140     4.7420     7.4070 h1         1 P8H       0.014700
@<TRIPOS>BOND
     1     1     2 ar  
     2     1     6 ar  
     3     1     8 1   
     4     2     3 ar  
     5     2    21 1   
     6     3     4 ar  
     7     4     5 ar  
     8     4    22 1   
     9     5     6 ar  
    10     5     7 1   
    11     6    23 1   
    12     7     9 2   
    13     7    10 1   
    14    10    11 1   
    15    10    13 1   
    16    11    12 1   
    17    11    24 1   
    18    11    25 1   
    19    12    15 1   
    20    12    26 1   
    21    12    27 1   
    22    13    14 1   
    23    13    28 1   
    24    13    29 1   
    25    14    15 1   
    26    14    30 1   
    27    14    31 1   
    28    15    16 1   
    29    15    32 1   
    30    16    17 1   
    31    16    20 1   
    32    17    18 1   
    33    17    33 1   
    34    17    34 1   
    35    18    19 1   
    36    18    35 1   
    37    18    36 1   
    38    19    20 1   
    39    19    37 1   
    40    19    38 1   
    41    20    39 1   
    42    20    40 1   
@<TRIPOS>SUBSTRUCTURE
     1 P8H         1 TEMP              0 ****  ****    0 ROOT
