@<TRIPOS>MOLECULE
molecule
   67    66     1     0     0
SMALL
bcc


@<TRIPOS>ATOM
      1 O1           0.0000     0.0000     0.0000 os         1 P8P      -0.712800
      2 P1           1.6090     0.0000     0.0000 p5         1 P8P       1.416800
      3 P2          -1.1190     0.0000     1.1570 p5         1 P8P       1.296900
      4 O11          2.1460     1.4660     0.3940 o          1 P8P      -0.862000
      5 O12          2.1030    -0.9870     0.9870 o          1 P8P      -0.862000
      6 O13          2.1470    -0.3920    -1.4660 os         1 P8P      -0.578200
      7 C1A          4.2120     1.0780    -4.3920 c          1 P8P       0.641100
      8 O1A          5.3480     0.9350    -4.0060 o          1 P8P      -0.592000
      9 C1B          0.5620    -2.8780    -3.3940 c          1 P8P       0.645100
     10 O1B          0.9170    -3.9210    -3.8900 o          1 P8P      -0.641000
     11 C1C          3.5330    -0.5790    -1.7620 c3         1 P8P       0.216400
     12 O21         -0.7530     0.9860     2.1980 o          1 P8P      -0.948500
     13 O22         -2.5460     0.3930     0.5240 o          1 P8P      -0.948500
     14 O23         -1.2090    -1.4670     1.8160 o          1 P8P      -0.948500
     15 C2A          3.8500     2.2680    -5.2430 c3         1 P8P      -0.129400
     16 C2B         -0.8840    -2.6760    -3.0200 c3         1 P8P      -0.129400
     17 C2C          3.6930    -0.9420    -3.2400 c3         1 P8P       0.132100
     18 O2C          3.2730     0.1770    -4.0620 os         1 P8P      -0.383900
     19 C3A          5.0920     3.1300    -5.4700 c3         1 P8P      -0.071400
     20 C3B         -1.6820    -3.9340    -3.3700 c3         1 P8P      -0.065400
     21 C3C          2.8300    -2.1640    -3.5610 c3         1 P8P       0.164400
     22 O3C          1.4540    -1.9000    -3.1760 os         1 P8P      -0.323900
     23 C4A          4.7250     4.3380    -6.3340 c3         1 P8P      -0.084400
     24 C4B         -3.1500    -3.7280    -2.9890 c3         1 P8P      -0.086400
     25 C5A          5.9680     5.2010    -6.5600 c3         1 P8P      -0.080400
     26 C6A          5.6000     6.4090    -7.4240 c3         1 P8P      -0.082400
     27 C7A          6.8430     7.2710    -7.6510 c3         1 P8P      -0.084400
     28 C8A          6.4750     8.4790    -8.5150 c3         1 P8P      -0.092100
     29 H1C          4.0740     0.3360    -1.5550 h1         1 P8P       0.032200
     30 H1CA         3.9290    -1.3800    -1.1490 h1         1 P8P       0.032200
     31 H2A          3.0910     2.8540    -4.7390 hc         1 P8P       0.071700
     32 H2AA         3.4680     1.9260    -6.1970 hc         1 P8P       0.071700
     33 H2B         -1.2840    -1.8310    -3.5680 hc         1 P8P       0.113700
     34 H2BA        -0.9590    -2.4850    -1.9560 hc         1 P8P       0.113700
     35 H2C          4.7310    -1.1710    -3.4450 h1         1 P8P       0.043700
     36 H3A          5.8510     2.5440    -5.9730 hc         1 P8P       0.054200
     37 H3AA         5.4740     3.4720    -4.5150 hc         1 P8P       0.054200
     38 H3B         -1.6080    -4.1250    -4.4340 hc         1 P8P       0.032200
     39 H3BA        -1.2820    -4.7790    -2.8230 hc         1 P8P       0.032200
     40 H3C          2.8740    -2.3680    -4.6240 h1         1 P8P       0.031200
     41 H3CA         3.2000    -3.0220    -3.0130 h1         1 P8P       0.031200
     42 H4A          4.3430     3.9960    -7.2880 hc         1 P8P       0.039700
     43 H4AA         3.9650     4.9240    -5.8300 hc         1 P8P       0.039700
     44 H4B         -3.2240    -3.5380    -1.9250 hc         1 P8P       0.067200
     45 H4BA        -3.5500    -2.8830    -3.5360 hc         1 P8P       0.067200
     46 C16         -3.9480    -4.9860    -3.3390 c3         1 P8P      -0.079400
     47 H5A          6.7270     4.6150    -7.0640 hc         1 P8P       0.040700
     48 H5AA         6.3490     5.5430    -5.6060 hc         1 P8P       0.040700
     49 H6A          4.8410     6.9950    -6.9210 hc         1 P8P       0.039700
     50 H6AA         5.2180     6.0670    -8.3790 hc         1 P8P       0.039700
     51 H7A          7.2250     7.6130    -6.6970 hc         1 P8P       0.037700
     52 H7AA         7.6020     6.6850    -8.1550 hc         1 P8P       0.037700
     53 H8A          7.3560     9.0890    -8.6760 hc         1 P8P       0.026367
     54 H8AA         6.0930     8.1380    -9.4700 hc         1 P8P       0.026367
     55 H8AB         5.7160     9.0650    -8.0120 hc         1 P8P       0.026367
     56 C17         -5.4160    -4.7800    -2.9600 c3         1 P8P      -0.082400
     57 C18         -6.2140    -6.0380    -3.3090 c3         1 P8P      -0.085400
     58 C19         -7.6820    -5.8330    -2.9290 c3         1 P8P      -0.092100
     59 H30         -3.8730    -5.1760    -4.4030 hc         1 P8P       0.025700
     60 H31         -3.5480    -5.8310    -2.7920 hc         1 P8P       0.025700
     61 H32         -5.8150    -3.9350    -3.5070 hc         1 P8P       0.051700
     62 H33         -5.4900    -4.5890    -1.8960 hc         1 P8P       0.051700
     63 H34         -5.8140    -6.8830    -2.7620 hc         1 P8P       0.028700
     64 H35         -6.1400    -6.2290    -4.3730 hc         1 P8P       0.028700
     65 H36         -8.0820    -4.9870    -3.4760 hc         1 P8P       0.024700
     66 H37         -7.7560    -5.6420    -1.8650 hc         1 P8P       0.024700
     67 H38         -8.2470    -6.7230    -3.1760 hc         1 P8P       0.024700
@<TRIPOS>BOND
     1     1     3 1
     2     2     1 1
     3     2     4 1
     4     3    13 1
     5     3    14 1
     6     5     2 1
     7     6     2 1
     8     7    18 1
     9     7     8 2
    10     9    10 2
    11     9    22 1
    12    11     6 1
    13    11    29 1
    14    11    30 1
    15    12     3 1
    16    15     7 1
    17    15    31 1
    18    15    32 1
    19    16     9 1
    20    16    20 1
    21    16    33 1
    22    16    34 1
    23    17    11 1
    24    17    18 1
    25    17    35 1
    26    19    15 1
    27    19    36 1
    28    19    37 1
    29    20    38 1
    30    20    39 1
    31    21    17 1
    32    21    40 1
    33    21    41 1
    34    22    21 1
    35    23    19 1
    36    23    42 1
    37    23    43 1
    38    24    20 1
    39    24    44 1
    40    24    45 1
    41    24    46 1
    42    25    23 1
    43    25    47 1
    44    25    48 1
    45    26    25 1
    46    26    49 1
    47    26    50 1
    48    27    26 1
    49    27    28 1
    50    27    51 1
    51    27    52 1
    52    28    53 1
    53    28    54 1
    54    28    55 1
    55    46    56 1
    56    56    57 1
    57    57    58 1
    58    46    59 1
    59    46    60 1
    60    56    61 1
    61    56    62 1
    62    57    63 1
    63    57    64 1
    64    58    65 1
    65    58    66 1
    66    58    67 1
@<TRIPOS>SUBSTRUCTURE
     1 P8P         1 TEMP              0 ****  ****    0 ROOT
