@<TRIPOS>MOLECULE
P8P
   67    66     1     0     0
SMALL
bcc


@<TRIPOS>ATOM
      1 O1          1.7620    2.5860    0.5670 os        1 P8P     -0.825800
      2 P1          2.8610    1.8260   -0.3450 p5        1 P8P      1.609800
      3 P2          0.7760    3.4260    1.5780 p5        1 P8P      1.594800
      4 O11         3.3200    2.7150   -1.4380 o         1 P8P     -0.894000
      5 O12         3.8200    1.0750    0.4910 o         1 P8P     -0.894000
      6 O13         1.8860    0.6870   -1.0890 os        1 P8P     -0.580200
      7 C1A         3.5310    0.8350   -4.1410 c         1 P8P      0.668100
      8 O1A         4.5350    0.1120   -4.1860 o         1 P8P     -0.607000
      9 C1B         0.3030   -3.4710   -4.6140 c2        1 P8P      0.441100
     10 O1B         0.8140   -4.3650   -5.3480 o         1 P8P     -0.552000
     11 C1C         2.4870   -0.5120   -1.4360 c3        1 P8P      0.191400
     12 O21         0.1950    2.5370    2.6050 o         1 P8P     -0.889000
     13 O22         1.3710    4.7290    1.9410 o         1 P8P     -0.889000
     14 O23        -0.3940    3.6900    0.4580 oh        1 P8P     -0.807400
     15 C2A         3.4260    2.2820   -4.5100 c3        1 P8P     -0.172400
     16 C2B        -1.0210   -3.2240   -4.2890 c2        1 P8P     -0.647200
     17 C2C         2.3380   -0.8710   -2.9300 c3        1 P8P      0.114100
     18 O2C         2.3390    0.3310   -3.7250 os        1 P8P     -0.409900
     19 C3A         4.5380    2.7120   -5.4370 c3        1 P8P     -0.063400
     20 C3B        -2.1010   -4.0470   -4.8340 c3        1 P8P      0.082800
     21 C3C         1.0200   -1.5850   -3.2700 c3        1 P8P      0.150400
     22 O3C         1.3550   -2.6780   -4.1170 os        1 P8P     -0.478900
     23 C4A         4.5600    4.2190   -5.5800 c3        1 P8P     -0.082400
     24 C4B        -2.9080   -4.7370   -3.7390 c3        1 P8P     -0.086400
     25 C5A         5.6810    4.6700   -6.4930 c3        1 P8P     -0.076400
     26 C6A         5.7060    6.1770   -6.6310 c3        1 P8P     -0.080400
     27 C7A         6.8300    6.6330   -7.5370 c3        1 P8P     -0.080400
     28 C8A         6.8590    8.1330   -7.6770 c3        1 P8P     -0.089100
     29 H1C         2.0110   -1.3480   -0.8460 h1        1 P8P      0.022200
     30 H1CA        3.5880   -0.4790   -1.1880 h1        1 P8P      0.022200
     31 H2A         3.4710    2.8450   -3.5200 hc        1 P8P      0.122700
     32 H2AA        2.4230    2.4840   -4.9650 hc        1 P8P      0.122700
     33 H2B        -1.3040   -2.4060   -3.6280 ha        1 P8P      0.100000
     34 H2BA       -0.3830    3.0590   -0.2500 ho        1 P8P      0.426000
     35 H2C         3.2030   -1.5250   -3.2350 h1        1 P8P      0.070700
     36 H3A         4.4080    2.2370   -6.4440 hc        1 P8P      0.035700
     37 H3AA        5.5190    2.3530   -5.0250 hc        1 P8P      0.035700
     38 H3B        -1.6880   -4.8300   -5.5260 hc        1 P8P     -0.013800
     39 H3BA       -2.8220   -3.4220   -5.4380 hc        1 P8P     -0.013800
     40 H3C         0.5320   -1.9640   -2.3350 h1        1 P8P      0.038700
     41 H3CA        0.3200   -0.8850   -3.7960 h1        1 P8P      0.038700
     42 H4A         3.5770    4.5730   -5.9880 hc        1 P8P      0.048700
     43 H4AA        4.6840    4.6840   -4.5660 hc        1 P8P      0.048700
     44 H4B        -3.3190   -3.9640   -3.0390 hc        1 P8P      0.030700
     45 H4BA       -2.2270   -5.3970   -3.1440 hc        1 P8P      0.030700
     46 C16        -4.0450   -5.5590   -4.3110 c3        1 P8P     -0.076400
     47 H5A         6.6620    4.3130   -6.0830 hc        1 P8P      0.030200
     48 H5AA        5.5560    4.2020   -7.5050 hc        1 P8P      0.030200
     49 H6A         5.8280    6.6430   -5.6170 hc        1 P8P      0.041200
     50 H6AA        4.7250    6.5340   -7.0410 hc        1 P8P      0.041200
     51 H7A         7.8100    6.2750   -7.1230 hc        1 P8P      0.031700
     52 H7AA        6.7090    6.1630   -8.5480 hc        1 P8P      0.031700
     53 H8A         7.6950    8.4490   -8.3460 hc        1 P8P      0.023367
     54 H8AA        5.8990    8.5060   -8.1110 hc        1 P8P      0.023367
     55 H8AB        7.0010    8.6170   -6.6800 hc        1 P8P      0.023367
     56 C17        -4.8430   -6.2440   -3.2230 c3        1 P8P     -0.080400
     57 C18        -5.9780   -7.0670   -3.7950 c3        1 P8P     -0.080400
     58 C19        -6.7750   -7.7500   -2.7130 c3        1 P8P     -0.088100
     59 H30        -3.6310   -6.3290   -5.0140 hc        1 P8P      0.022700
     60 H31        -4.7230   -4.8960   -4.9110 hc        1 P8P      0.022700
     61 H32        -4.1650   -6.9070   -2.6230 hc        1 P8P      0.036200
     62 H33        -5.2560   -5.4730   -2.5200 hc        1 P8P      0.036200
     63 H34        -6.6540   -6.4020   -4.3960 hc        1 P8P      0.029700
     64 H35        -5.5630   -7.8360   -4.4990 hc        1 P8P      0.029700
     65 H36        -6.1220   -8.4350   -2.1190 hc        1 P8P      0.020700
     66 H37        -7.6060   -8.3500   -3.1550 hc        1 P8P      0.020700
     67 H38        -7.2150   -6.9970   -2.0150 hc        1 P8P      0.020700
@<TRIPOS>BOND
     1    1    2 1   
     2    1    3 1   
     3    2    4 1   
     4    2    5 1   
     5    2    6 1   
     6    3   12 1   
     7    3   13 1   
     8    3   14 1   
     9    6   11 1   
    10    7    8 2   
    11    7   15 1   
    12    7   18 1   
    13    9   10 1   
    14    9   16 2   
    15    9   22 1   
    16   11   17 1   
    17   11   29 1   
    18   11   30 1   
    19   14   34 1   
    20   15   19 1   
    21   15   31 1   
    22   15   32 1   
    23   16   20 1   
    24   16   33 1   
    25   17   18 1   
    26   17   21 1   
    27   17   35 1   
    28   19   23 1   
    29   19   36 1   
    30   19   37 1   
    31   20   24 1   
    32   20   38 1   
    33   20   39 1   
    34   21   22 1   
    35   21   40 1   
    36   21   41 1   
    37   23   25 1   
    38   23   42 1   
    39   23   43 1   
    40   24   44 1   
    41   24   45 1   
    42   24   46 1   
    43   25   26 1   
    44   25   47 1   
    45   25   48 1   
    46   26   27 1   
    47   26   49 1   
    48   26   50 1   
    49   27   28 1   
    50   27   51 1   
    51   27   52 1   
    52   28   53 1   
    53   28   54 1   
    54   28   55 1   
    55   46   56 1   
    56   46   59 1   
    57   46   60 1   
    58   56   57 1   
    59   56   61 1   
    60   56   62 1   
    61   57   58 1   
    62   57   63 1   
    63   57   64 1   
    64   58   65 1   
    65   58   66 1   
    66   58   67 1   
@<TRIPOS>SUBSTRUCTURE
     1 P8P         1 TEMP              0 ****  ****    0 ROOT
