@<TRIPOS>MOLECULE
molecule
   29    28     1     0     0
SMALL
bcc


@<TRIPOS>ATOM
      1 F8C         -5.1500    -1.2020     1.1410 f          1 P8S      -0.195300
      2 C8          -5.1570    -0.3930    -0.0000 c3         1 P8S       0.588900
      3 F8A         -5.1500    -1.2000    -1.1430 f          1 P8S      -0.195300
      4 F8B         -6.3070     0.4040     0.0000 f          1 P8S      -0.195300
      5 C7          -3.9160     0.5010     0.0000 c3         1 P8S       0.327600
      6 F7A         -3.9240     1.3100    -1.1410 f          1 P8S      -0.174300
      7 F7B         -3.9240     1.3080     1.1430 f          1 P8S      -0.174300
      8 C6          -2.6590    -0.3700    -0.0000 c3         1 P8S       0.331600
      9 F6A         -2.6520    -1.1790     1.1410 f          1 P8S      -0.172300
     10 F6B         -2.6520    -1.1770    -1.1430 f          1 P8S      -0.172300
     11 C5          -1.4180     0.5240     0.0000 c3         1 P8S       0.335600
     12 F5B         -1.4250     1.3330    -1.1410 f          1 P8S      -0.173800
     13 F5A         -1.4250     1.3310     1.1430 f          1 P8S      -0.173800
     14 C4          -0.1610    -0.3470    -0.0000 c3         1 P8S       0.331600
     15 F4A         -0.1530    -1.1560     1.1420 f          1 P8S      -0.175300
     16 F4B         -0.1530    -1.1550    -1.1430 f          1 P8S      -0.175300
     17 C3           1.0800     0.5470     0.0000 c3         1 P8S       0.338600
     18 F3B          1.0730     1.3560    -1.1410 f          1 P8S      -0.178300
     19 F3A          1.0730     1.3540     1.1430 f          1 P8S      -0.178300
     20 C2           2.3380    -0.3240    -0.0000 c3         1 P8S       0.328600
     21 F2A          2.3450    -1.1330     1.1420 f          1 P8S      -0.183300
     22 F2B          2.3450    -1.1320    -1.1430 f          1 P8S      -0.183300
     23 C1           3.5790     0.5700     0.0000 c3         1 P8S       0.256400
     24 F1B          3.5710     1.3790    -1.1410 f          1 P8S      -0.198300
     25 F1A          3.5710     1.3770     1.1430 f          1 P8S      -0.198300
     26 S1           5.0690    -0.4630    -0.0000 s6         1 P8S       1.189800
     27 O3           5.2000    -1.1500    -1.2380 o          1 P8S      -0.642867
     28 O1           6.2210     0.5310     0.0000 o          1 P8S      -0.642867
     29 O2           5.2000    -1.1510     1.2360 o          1 P8S      -0.642867
@<TRIPOS>BOND
     1     1     2 1
     2    10     8 1
     3     3     2 1
     4     6     5 1
     5     2     5 1
     6     2     4 1
     7    12    11 1
     8    13    11 1
     9     5     8 1
    10     5     7 1
    11     8    11 1
    12     8     9 1
    13    11    14 1
    14    18    17 1
    15    22    20 1
    16    24    23 1
    17    25    23 1
    18    14    17 1
    19    14    16 1
    20    14    15 1
    21    17    20 1
    22    17    19 1
    23    20    23 1
    24    20    21 1
    25    23    26 1
    26    26    27 1
    27    26    29 1
    28    26    28 1
@<TRIPOS>SUBSTRUCTURE
     1 P8S         1 TEMP              0 ****  ****    0 ROOT
