@<TRIPOS>MOLECULE
molecule
   65    70     1     0     0
SMALL
bcc


@<TRIPOS>ATOM
      1 C1           0.0000     0.0000     0.0000 c3         1 P90       0.111400
      2 C32          1.5290     0.0000     0.0000 c3         1 P90      -0.024100
      3 C33          2.0310     1.2140     0.7400 ca         1 P90      -0.157300
      4 C4A          2.2310     1.1560     2.1060 ca         1 P90      -0.141000
      5 C4B          2.2900     2.3830     0.0510 ca         1 P90      -0.141000
      6 C5A          2.6920     2.2690     2.7840 ca         1 P90      -0.079000
      7 C5B          2.7470     3.4970     0.7310 ca         1 P90      -0.079000
      8 C36          2.9530     3.4380     2.0950 ca         1 P90      -0.047300
      9 C37          3.4550     4.6520     2.8340 c3         1 P90       0.330700
     10 F38          3.0440     4.5880     4.1690 f          1 P90      -0.266300
     11 F39          2.9360     5.8070     2.2430 f          1 P90      -0.266300
     12 P40          5.2760     4.6980     2.7620 p5         1 P90       0.966700
     13 O41          5.7520     4.6440     1.2250 o          1 P90      -0.868500
     14 O42          5.7640     5.9470     3.3850 o          1 P90      -0.868500
     15 O43          5.8770     3.4330     3.5540 o          1 P90      -0.868500
     16 N61         -0.4890     0.0000     1.3810 na         1 P90       0.070900
     17 N62         -1.2970     0.9730     1.9850 nc         1 P90      -0.136400
     18 N63         -1.5270     0.6410     3.2060 nd         1 P90      -0.211400
     19 C7A         -0.9170    -0.5250     3.4970 ca         1 P90       0.021400
     20 C7B         -0.2490    -0.9570     2.3390 ca         1 P90      -0.049200
     21 C8A         -0.8510    -1.3060     4.6580 ca         1 P90      -0.047000
     22 C8B          0.4750    -2.1430     2.3590 ca         1 P90      -0.133000
     23 C9A         -0.1390    -2.4710     4.6550 ca         1 P90      -0.163000
     24 C9B          0.5250    -2.8940     3.5120 ca         1 P90      -0.096000
     25 C51         -0.5030     1.2290    -0.7100 cc         1 P90       0.437200
     26 S52         -1.5040     2.5010    -0.0840 ss         1 P90      -0.011100
     27 N53         -0.2860     1.5960    -1.9420 nd         1 P90      -0.632100
     28 C54         -0.8040     2.7290    -2.4620 ca         1 P90       0.127400
     29 C55         -1.5850     3.4840    -1.5600 ca         1 P90      -0.066100
     30 C56         -2.1840     4.6670    -1.9170 ca         1 P90      -0.072000
     31 C57         -2.0240     5.1480    -3.2020 ca         1 P90      -0.131000
     32 C58         -1.2620     4.4270    -4.1090 ca         1 P90      -0.140000
     33 C59         -0.6640     3.2540    -3.7660 ca         1 P90      -0.072000
     34 C12         -0.5100    -1.2500    -0.7200 c3         1 P90      -0.058200
     35 C13         -2.0160    -1.2330    -0.7520 c2         1 P90      -0.155200
     36 C14         -2.6560    -1.3430    -1.9080 ce         1 P90      -0.128200
     37 C15         -4.1260    -1.1990    -1.9550 ca         1 P90      -0.041800
     38 C1A         -4.8330    -0.8510    -0.8050 ca         1 P90      -0.120000
     39 C1B         -4.8130    -1.4160    -3.1500 ca         1 P90      -0.120000
     40 C2A         -6.2050    -0.7110    -0.8580 ca         1 P90      -0.130000
     41 C2B         -6.1860    -1.2800    -3.1880 ca         1 P90      -0.130000
     42 C16         -6.8800    -0.9290    -2.0450 ca         1 P90      -0.140000
     43 H321         1.8900    -0.8960     0.4890 hc         1 P90       0.059700
     44 H322         1.8900     0.0240    -1.0210 hc         1 P90       0.059700
     45 H4A          2.0270     0.2390     2.6450 ha         1 P90       0.103000
     46 H4B          2.1290     2.4300    -1.0190 ha         1 P90       0.103000
     47 H5A          2.8510     2.2230     3.8540 ha         1 P90       0.156500
     48 H5B          2.9510     4.4140     0.1920 ha         1 P90       0.156500
     49 H8A         -1.3650    -0.9870     5.5570 ha         1 P90       0.138000
     50 H8B          0.9950    -2.4780     1.4690 ha         1 P90       0.135000
     51 H9A         -0.0900    -3.0710     5.5560 ha         1 P90       0.126000
     52 H9B          1.0860    -3.8200     3.5280 ha         1 P90       0.128000
     53 H56         -2.7770     5.2180    -1.1970 ha         1 P90       0.133000
     54 H57         -2.4900     6.0800    -3.4990 ha         1 P90       0.123000
     55 H58         -1.1390     4.8080    -5.1160 ha         1 P90       0.119000
     56 H59         -0.0750     2.7170    -4.5000 ha         1 P90       0.134000
     57 H121        -0.1280    -1.2630    -1.7340 hc         1 P90       0.069700
     58 H122        -0.1700    -2.1340    -0.1940 hc         1 P90       0.069700
     59 H13         -2.5730    -1.0370     0.1570 ha         1 P90       0.137000
     60 H14         -2.0940    -1.4450    -2.8290 ha         1 P90       0.134000
     61 H1A         -4.3050    -0.6800     0.1250 ha         1 P90       0.136000
     62 H1B         -4.2700    -1.6910    -4.0460 ha         1 P90       0.136000
     63 H2A         -6.7550    -0.4380     0.0350 ha         1 P90       0.123000
     64 H2B         -6.7210    -1.4490    -4.1150 ha         1 P90       0.123000
     65 H16         -7.9580    -0.8200    -2.0800 ha         1 P90       0.118000
@<TRIPOS>BOND
     1     1     2 1
     2     1    16 1
     3     1    25 1
     4     1    34 1
     5     2     3 1
     6     2    43 1
     7     2    44 1
     8     3     4 ar
     9     3     5 ar
    10     4     6 ar
    11     4    45 1
    12     5     7 ar
    13     5    46 1
    14     6     8 ar
    15     6    47 1
    16     7     8 ar
    17     7    48 1
    18     8     9 1
    19     9    10 1
    20     9    11 1
    21     9    12 1
    22    12    13 1
    23    12    14 1
    24    12    15 1
    25    16    17 1
    26    16    20 1
    27    17    18 2
    28    18    19 1
    29    19    20 ar
    30    19    21 ar
    31    20    22 ar
    32    21    23 ar
    33    21    49 1
    34    22    24 ar
    35    22    50 1
    36    23    24 ar
    37    23    51 1
    38    24    52 1
    39    25    26 1
    40    25    27 2
    41    26    29 1
    42    27    28 1
    43    28    29 ar
    44    28    33 ar
    45    29    30 ar
    46    30    31 ar
    47    30    53 1
    48    31    32 ar
    49    31    54 1
    50    32    33 ar
    51    32    55 1
    52    33    56 1
    53    34    35 1
    54    34    57 1
    55    34    58 1
    56    35    36 2
    57    35    59 1
    58    36    37 1
    59    36    60 1
    60    37    38 ar
    61    37    39 ar
    62    38    40 ar
    63    38    61 1
    64    39    41 ar
    65    39    62 1
    66    40    42 ar
    67    40    63 1
    68    41    42 ar
    69    41    64 1
    70    42    65 1
@<TRIPOS>SUBSTRUCTURE
     1 P90         1 TEMP              0 ****  ****    0 ROOT
