@<TRIPOS>MOLECULE
P90
   65    69     1     0     0
SMALL
bcc


@<TRIPOS>ATOM
      1 C1         -0.8030    0.5910   -0.1320 c3        1 P90      0.183000
      2 C32         0.7160    0.3470    0.1140 c3        1 P90     -0.068000
      3 C33         1.5080    1.5430    0.4830 ca        1 P90     -0.425000
      4 C4A         1.5210    1.9910    1.8450 ca        1 P90     -0.039500
      5 C4B         2.6810    1.8390   -0.2910 ca        1 P90     -0.039500
      6 C5A         2.5380    2.7320    2.3580 ca        1 P90     -0.229500
      7 C5B         3.7100    2.5790    0.1980 ca        1 P90     -0.229500
      8 C36         3.7020    3.0580    1.5630 ca        1 P90     -0.005000
      9 C37         4.7490    3.7650    2.0740 c2        1 P90      0.043000
     10 F38         4.9180    4.2670    3.3180 f         1 P90     -0.121000
     11 F39         5.9030    4.1260    1.4650 f         1 P90     -0.121000
     12 P40         7.3550    5.3340    3.3020 p3        1 P90      2.386000
     13 O41         8.0370    5.6770    2.0380 o         1 P90     -1.132000
     14 O42         6.5510    6.3690    3.9810 o         1 P90     -1.132000
     15 O43         7.7150    4.0870    4.0050 o         1 P90     -1.132000
     16 N61        -1.6070    0.4720    1.1100 na        1 P90     -0.164000
     17 N62        -2.5660    1.3670    1.4670 n2        1 P90      0.081000
     18 N63        -3.1310    1.0690    2.5580 n2        1 P90     -0.114000
     19 C7A        -2.5600   -0.1330    3.0600 ca        1 P90     -0.138000
     20 C7B        -1.5470   -0.5340    2.0970 ca        1 P90     -0.011000
     21 C8A        -2.8000   -0.8900    4.2100 ca        1 P90     -0.060000
     22 C8B        -0.8140   -1.7110    2.3090 ca        1 P90     -0.111000
     23 C9A        -2.0500   -2.0410    4.3940 ca        1 P90     -0.169000
     24 C9B        -1.0790   -2.4400    3.4570 ca        1 P90     -0.117000
     25 C51        -0.9620    1.9870   -0.7110 c2        1 P90     -0.320000
     26 S52         0.2660    3.1550   -0.5060 ss        1 P90      0.768000
     27 N53        -2.0520    2.3730   -1.3870 n2        1 P90     -0.129000
     28 C54        -1.8860    3.7000   -1.7780 ca        1 P90     -0.072000
     29 C55        -0.6400    4.2870   -1.3580 ca        1 P90     -0.454000
     30 C56        -0.3670    5.6200   -1.6990 ca        1 P90     -0.072000
     31 C57        -1.2850    6.3500   -2.4270 ca        1 P90     -0.158000
     32 C58        -2.5050    5.7720   -2.8380 ca        1 P90     -0.164000
     33 C59        -2.8140    4.4660   -2.5240 ca        1 P90     -0.091000
     34 C12        -1.3210   -0.4120   -1.2020 c3        1 P90     -0.154000
     35 C13        -1.0170   -1.8320   -0.9250 c2        1 P90     -0.121000
     36 C14        -1.8310   -2.8750   -1.1230 c2        1 P90     -0.165000
     37 C15        -3.2110   -2.8500   -1.5870 ca        1 P90     -0.025000
     38 C1A        -4.1820   -2.0440   -0.9770 ca        1 P90     -0.119500
     39 C1B        -3.5900   -3.6890   -2.6470 ca        1 P90     -0.119500
     40 C2A        -5.5010   -2.0700   -1.4270 ca        1 P90     -0.133500
     41 C2B        -4.9090   -3.7090   -3.0950 ca        1 P90     -0.133500
     42 C16        -5.8670   -2.8990   -2.4860 ca        1 P90     -0.143000
     43 H321        1.1190   -0.0790   -0.8470 hc        1 P90      0.070500
     44 H322        0.8410   -0.4430    0.9020 hc        1 P90      0.070500
     45 H4A         0.6610    1.7250    2.4790 ha        1 P90      0.090000
     46 H4B         2.7250    1.4540   -1.3230 ha        1 P90      0.090000
     47 H5A         2.5160    3.1010    3.3920 ha        1 P90      0.120000
     48 H5B         4.5830    2.8310   -0.4190 ha        1 P90      0.120000
     49 H8A        -3.5580   -0.5730    4.9390 ha        1 P90      0.137000
     50 H8B        -0.0530   -2.0530    1.5940 ha        1 P90      0.145000
     51 H9A        -2.2080   -2.6560    5.2910 ha        1 P90      0.120000
     52 H9B        -0.5060   -3.3600    3.6480 ha        1 P90      0.122000
     53 H56         0.5820    6.0750   -1.3760 ha        1 P90      0.133000
     54 H57        -1.0750    7.3950   -2.6920 ha        1 P90      0.108000
     55 H58        -3.2150    6.3820   -3.4140 ha        1 P90      0.103000
     56 H59        -3.7660    4.0160   -2.8380 ha        1 P90      0.121000
     57 H121       -2.4230   -0.2630   -1.3570 hc        1 P90      0.118000
     58 H122       -0.8130   -0.1340   -2.1680 hc        1 P90      0.118000
     59 H13         0.0130   -2.0270   -0.5730 ha        1 P90      0.125000
     60 H14        -1.4490   -3.8960   -0.9360 ha        1 P90      0.116000
     61 H1A        -3.8990   -1.3870   -0.1390 ha        1 P90      0.139500
     62 H1B        -2.8350   -4.3270   -3.1290 ha        1 P90      0.139500
     63 H2A        -6.2520   -1.4260   -0.9450 ha        1 P90      0.124000
     64 H2B        -5.1920   -4.3630   -3.9320 ha        1 P90      0.124000
     65 H16        -6.9070   -2.9130   -2.8420 ha        1 P90      0.118000
@<TRIPOS>BOND
     1    1    2 1   
     2    1   16 1   
     3    1   25 1   
     4    1   34 1   
     5    2    3 1   
     6    2   43 1   
     7    2   44 1   
     8    3    4 1   
     9    3    5 1   
    10    4    6 1   
    11    4   45 1   
    12    5    7 1   
    13    5   46 1   
    14    6    8 1   
    15    6   47 1   
    16    7    8 1   
    17    7   48 1   
    18    8    9 1   
    19    9   10 1   
    20    9   11 1   
    21   12   13 1   
    22   12   14 1   
    23   12   15 1   
    24   16   17 1   
    25   16   20 1   
    26   17   18 1   
    27   18   19 1   
    28   19   20 1   
    29   19   21 1   
    30   20   22 1   
    31   21   23 1   
    32   21   49 1   
    33   22   24 1   
    34   22   50 1   
    35   23   24 1   
    36   23   51 1   
    37   24   52 1   
    38   25   26 1   
    39   25   27 1   
    40   26   29 1   
    41   27   28 1   
    42   28   29 1   
    43   28   33 1   
    44   29   30 1   
    45   30   31 1   
    46   30   53 1   
    47   31   32 1   
    48   31   54 1   
    49   32   33 1   
    50   32   55 1   
    51   33   56 1   
    52   34   35 1   
    53   34   57 1   
    54   34   58 1   
    55   35   36 1   
    56   35   59 1   
    57   36   37 1   
    58   36   60 1   
    59   37   38 1   
    60   37   39 1   
    61   38   40 1   
    62   38   61 1   
    63   39   41 1   
    64   39   62 1   
    65   40   42 1   
    66   40   63 1   
    67   41   42 1   
    68   41   64 1   
    69   42   65 1   
@<TRIPOS>SUBSTRUCTURE
     1 P90         1 TEMP              0 ****  ****    0 ROOT
