@<TRIPOS>MOLECULE
P91
   44    47     1     0     0
SMALL
bcc


@<TRIPOS>ATOM
      1 C1           0.0000     0.0000     0.0000 ca         1 P91      -0.079000
      2 C2           1.3910     0.0000     0.0000 cp         1 P91       0.051000
      3 C3           2.0960     0.0000     1.2130 ca         1 P91      -0.173600
      4 C4           1.3980     0.0020     2.4300 ca         1 P91      -0.092600
      5 C5           2.4270     0.0010     3.4890 c          1 P91       0.639100
      6 C6           3.5290     0.0000     1.5670 c          1 P91       0.647100
      7 C7           2.1300    -0.0010    -1.2840 cp         1 P91      -0.043000
      8 O1           2.2140     0.0030     4.6850 o          1 P91      -0.604500
      9 O2           4.4530     0.0000     0.7790 o          1 P91      -0.612500
     10 O3          -6.2450     3.0680     3.0750 oh         1 P91      -0.599800
     11 O4          -3.9440    -1.0320     4.0160 o          1 P91      -0.621100
     12 C8           2.9220    -1.0950    -1.6350 ca         1 P91       0.002400
     13 N1           3.6390     0.0010     2.9070 ns         1 P91      -0.168500
     14 C9           3.6080    -1.0910    -2.8350 ca         1 P91      -0.096000
     15 C10          3.5110    -0.0040    -3.6850 ca         1 P91      -0.084000
     16 C11          2.7280     1.0830    -3.3410 ca         1 P91      -0.104000
     17 N3          -4.1720     1.1580     3.7320 ns         1 P91      -0.178900
     18 C17         -5.5060     1.1450     4.3380 c3         1 P91       0.042000
     19 C18         -6.0530     2.5730     4.4010 c3         1 P91       0.210400
     20 C16         -2.2040     0.0040     2.8630 cc         1 P91      -0.271300
     21 C15         -0.9790     0.0030     3.4550 cd         1 P91      -0.019500
     22 Br          -0.6380     0.0050     5.3140 br         1 P91      -0.016700
     23 N2          -2.0470     0.0020     1.4910 na         1 P91       0.436600
     24 C21         -3.1330     0.0020     0.5090 c3         1 P91      -0.019400
     25 C14         -0.7040     0.0010     1.1980 ca         1 P91      -0.203200
     26 C13         -0.0050     0.0020     2.4270 ca         1 P91      -0.026800
     27 C12          2.0330     1.0880    -2.1480 ca         1 P91      -0.079000
     28 Cl           3.0450    -2.4600    -0.5690 cl         1 P91      -0.019400
     29 H1          -0.5380    -0.0030    -0.9400 ha         1 P91       0.114000
     30 HO3         -6.7800     3.8440     3.1040 ho         1 P91       0.398000
     31 HN1          4.5080     0.0010     3.4050 hn         1 P91       0.200500
     32 H9           4.2230    -1.9400    -3.1090 ha         1 P91       0.116000
     33 H10          4.0520    -0.0030    -4.6230 ha         1 P91       0.104000
     34 H11          2.6540     1.9310    -4.0120 ha         1 P91       0.104000
     35 HN3         -3.7510     2.0270     3.4690 hn         1 P91       0.184500
     36 H17         -5.4440     0.7380     5.3400 h1         1 P91       0.034700
     37 H17A        -6.1690     0.5310     3.7390 h1         1 P91       0.034700
     38 H18         -5.3470     3.2070     4.9240 h1         1 P91      -0.004300
     39 H18A        -6.9990     2.5740     4.9280 h1         1 P91      -0.004300
     40 H21         -3.4660     1.0180     0.3380 h1         1 P91       0.028033
     41 H21A        -2.7780    -0.4230    -0.4220 h1         1 P91       0.028033
     42 H21B        -3.9590    -0.5900     0.8840 h1         1 P91       0.028033
     43 H12          1.4200     1.9400    -1.8810 ha         1 P91       0.107000
     44 C22         -3.4930     0.0060     3.5730 c          1 P91       0.612300
@<TRIPOS>BOND
     1     1     2 ar  
     2     1    25 ar  
     3     1    29 1   
     4     2     3 ar  
     5     2     7 1   
     6     3     4 ar  
     7     3     6 1   
     8     4     5 1   
     9     4    26 ar  
    10     5     8 2   
    11     5    13 1   
    12     6     9 2   
    13     6    13 1   
    14     7    12 ar  
    15     7    27 ar  
    16    10    19 1   
    17    10    30 1   
    18    11    44 2   
    19    12    14 ar  
    20    12    28 1   
    21    13    31 1   
    22    14    15 ar  
    23    14    32 1   
    24    15    16 ar  
    25    15    33 1   
    26    16    27 ar  
    27    16    34 1   
    28    17    18 1   
    29    17    35 1   
    30    17    44 1   
    31    18    19 1   
    32    18    36 1   
    33    18    37 1   
    34    19    38 1   
    35    19    39 1   
    36    20    21 2   
    37    20    23 1   
    38    20    44 1   
    39    21    22 1   
    40    21    26 1   
    41    23    24 1   
    42    23    25 1   
    43    24    40 1   
    44    24    41 1   
    45    24    42 1   
    46    25    26 ar  
    47    27    43 1   
@<TRIPOS>SUBSTRUCTURE
     1 P91         1 TEMP              0 ****  ****    0 ROOT
