@<TRIPOS>MOLECULE
P94
   41    43     1     0     0
SMALL
bcc


@<TRIPOS>ATOM
      1 N28          2.6500     0.0200     4.6320 n1         1 P94      -0.382800
      2 C27          2.0920     0.0020     3.6440 cg         1 P94       0.232800
      3 C21          0.0000     0.0000     0.0000 ca         1 P94      -0.069300
      4 C22          1.3840     0.0000     0.0000 ca         1 P94      -0.099500
      5 C23          2.0770     0.0000     1.1920 ca         1 P94      -0.067500
      6 C24          1.3800     0.0010     2.4020 ca         1 P94       0.020000
      7 C25         -0.0180     0.0010     2.3940 ca         1 P94      -0.067500
      8 C26         -0.6980     0.0060     1.1950 ca         1 P94      -0.099500
      9 C14         -0.7500    -0.0010    -1.3070 c3         1 P94       0.028900
     10 C13         -1.0040    -1.4440    -1.7490 c3         1 P94       0.137800
     11 N12         -1.7350    -1.4430    -3.0230 n7         1 P94      -0.569200
     12 C11         -1.9970    -2.8160    -3.4790 c3         1 P94       0.196100
     13 C10         -2.7460    -2.7200    -7.1780 ca         1 P94       0.385600
     14 C09         -2.0530    -2.7570    -5.9560 ca         1 P94      -0.118300
     15 C08         -2.7470    -2.7750    -4.7860 ca         1 P94      -0.092300
     16 C07         -4.1400    -2.7580    -4.7770 ca         1 P94      -0.100000
     17 C06         -4.8460    -2.7220    -5.9410 ca         1 P94      -0.078000
     18 C05         -4.1630    -2.7020    -7.1660 ca         1 P94      -0.159300
     19 C04         -4.8590    -2.6640    -8.3920 ca         1 P94      -0.050000
     20 C03         -4.1350    -2.6460    -9.5460 ca         1 P94      -0.227300
     21 C02         -2.7340    -2.6660    -9.4920 ca         1 P94       0.504200
     22 N02         -2.0110    -2.6470   -10.6750 nv         1 P94      -0.647500
     23 N01         -2.0890    -2.7070    -8.3440 nb         1 P94      -0.586000
     24 H1           1.9250    -0.0050    -0.9380 ha         1 P94       0.113000
     25 H2           3.1610    -0.0000     1.1880 ha         1 P94       0.113500
     26 H3          -0.5640    -0.0490     3.3280 ha         1 P94       0.113500
     27 H4          -1.7810     0.0060     1.1900 ha         1 P94       0.113000
     28 H5          -0.2290     0.6240    -2.0230 hc         1 P94       0.026200
     29 H6          -1.7490     0.3860    -1.1510 hc         1 P94       0.026200
     30 H7          -0.0600    -1.9230    -1.9780 h1         1 P94       0.012700
     31 H8          -1.4990    -1.9840    -0.9510 h1         1 P94       0.012700
     32 H9          -2.6510    -1.0660    -2.8820 hn         1 P94       0.248800
     33 H11         -2.7140    -3.2860    -2.8170 h1         1 P94       0.010700
     34 H12         -1.0730    -3.3820    -3.4710 h1         1 P94       0.010700
     35 H13         -0.9710    -2.7980    -5.9490 ha         1 P94       0.123000
     36 H14         -4.6760    -2.8920    -3.8450 ha         1 P94       0.103000
     37 H15         -5.9290    -2.7090    -5.9170 ha         1 P94       0.106000
     38 H16         -5.9430    -2.6500    -8.3990 ha         1 P94       0.109000
     39 H17         -4.6410    -2.5840   -10.5020 ha         1 P94       0.116000
     40 H18         -1.9600    -3.4700   -11.2430 hn         1 P94       0.276300
     41 H19         -1.5260    -1.8170   -10.9520 hn         1 P94       0.276300
@<TRIPOS>BOND
     1     1     2 3   
     2     2     6 1   
     3     3     4 ar  
     4     3     8 ar  
     5     3     9 1   
     6     4     5 ar  
     7     4    24 1   
     8     5     6 ar  
     9     5    25 1   
    10     6     7 ar  
    11     7     8 ar  
    12     7    26 1   
    13     8    27 1   
    14     9    10 1   
    15     9    28 1   
    16     9    29 1   
    17    10    11 1   
    18    10    30 1   
    19    10    31 1   
    20    11    12 1   
    21    11    32 1   
    22    12    15 1   
    23    12    33 1   
    24    12    34 1   
    25    13    14 ar  
    26    13    18 ar  
    27    13    23 ar  
    28    14    15 ar  
    29    14    35 1   
    30    15    16 ar  
    31    16    17 ar  
    32    16    36 1   
    33    17    18 ar  
    34    17    37 1   
    35    18    19 ar  
    36    19    20 ar  
    37    19    38 1   
    38    20    21 ar  
    39    20    39 1   
    40    21    22 1   
    41    21    23 ar  
    42    22    40 1   
    43    22    41 1   
@<TRIPOS>SUBSTRUCTURE
     1 P94         1 TEMP              0 ****  ****    0 ROOT
