@<TRIPOS>MOLECULE
molecule
   41    43     1     0     0
SMALL
bcc


@<TRIPOS>ATOM
      1 N28          2.6500     0.0200     4.6320 n1         1 P94      -0.363800
      2 C27          2.0920     0.0020     3.6440 cg         1 P94       0.240800
      3 C21          0.0000     0.0000     0.0000 ca         1 P94      -0.061300
      4 C22          1.3840     0.0000     0.0000 ca         1 P94      -0.130000
      5 C23          2.0770     0.0000     1.1920 ca         1 P94      -0.087500
      6 C24          1.3800     0.0010     2.4020 ca         1 P94      -0.025000
      7 C25         -0.0180     0.0010     2.3940 ca         1 P94      -0.087500
      8 C26         -0.6980     0.0060     1.1950 ca         1 P94      -0.130000
      9 C14         -0.7500    -0.0010    -1.3070 c3         1 P94      -0.036100
     10 C13         -1.0040    -1.4440    -1.7490 c3         1 P94       0.145800
     11 N12         -1.7350    -1.4430    -3.0230 n7         1 P94      -0.780200
     12 C11         -1.9970    -2.8160    -3.4790 c3         1 P94       0.188100
     13 C10         -2.7460    -2.7200    -7.1780 ca         1 P94       0.433600
     14 C09         -2.0530    -2.7570    -5.9560 ca         1 P94      -0.141300
     15 C08         -2.7470    -2.7750    -4.7860 ca         1 P94      -0.079300
     16 C07         -4.1400    -2.7580    -4.7770 ca         1 P94      -0.131000
     17 C06         -4.8460    -2.7220    -5.9410 ca         1 P94      -0.106000
     18 C05         -4.1630    -2.7020    -7.1660 ca         1 P94      -0.167300
     19 C04         -4.8590    -2.6640    -8.3920 ca         1 P94      -0.077000
     20 C03         -4.1350    -2.6460    -9.5460 ca         1 P94      -0.259300
     21 C02         -2.7340    -2.6660    -9.4920 ca         1 P94       0.691200
     22 N02         -2.0110    -2.6470   -10.6750 nv         1 P94      -1.078500
     23 N01         -2.0890    -2.7070    -8.3440 nb         1 P94      -0.709000
     24 H1           1.9250    -0.0050    -0.9380 ha         1 P94       0.139500
     25 H2           3.1610    -0.0000     1.1880 ha         1 P94       0.142500
     26 H3          -0.5640    -0.0490     3.3280 ha         1 P94       0.142500
     27 H4          -1.7810     0.0060     1.1900 ha         1 P94       0.139500
     28 H5          -0.2290     0.6240    -2.0230 hc         1 P94       0.058700
     29 H6          -1.7490     0.3860    -1.1510 hc         1 P94       0.058700
     30 H7          -0.0600    -1.9230    -1.9780 h1         1 P94       0.039200
     31 H8          -1.4990    -1.9840    -0.9510 h1         1 P94       0.039200
     32 H9          -2.6510    -1.0660    -2.8820 hn         1 P94       0.340800
     33 H11         -2.7140    -3.2860    -2.8170 h1         1 P94       0.039700
     34 H12         -1.0730    -3.3820    -3.4710 h1         1 P94       0.039700
     35 H13         -0.9710    -2.7980    -5.9490 ha         1 P94       0.154000
     36 H14         -4.6760    -2.8920    -3.8450 ha         1 P94       0.127000
     37 H15         -5.9290    -2.7090    -5.9170 ha         1 P94       0.132000
     38 H16         -5.9430    -2.6500    -8.3990 ha         1 P94       0.138000
     39 H17         -4.6410    -2.5840   -10.5020 ha         1 P94       0.142000
     40 H18         -1.9600    -3.4700   -11.2430 hn         1 P94       0.437300
     41 H19         -1.5260    -1.8170   -10.9520 hn         1 P94       0.437300
@<TRIPOS>BOND
     1     1     2 3
     2     2     6 1
     3     7     6 ar
     4     7     8 ar
     5     6     5 ar
     6     8     3 ar
     7     5     4 ar
     8     3     4 ar
     9     3     9 1
    10     9    10 1
    11    10    11 1
    12    11    12 1
    13    12    15 1
    14    14    15 ar
    15    14    13 ar
    16    15    16 ar
    17    23    13 ar
    18    23    21 ar
    19    13    18 ar
    20    16    17 ar
    21    22    21 1
    22    21    20 ar
    23    18    17 ar
    24    18    19 ar
    25    20    19 ar
    26     4    24 1
    27     5    25 1
    28     7    26 1
    29     8    27 1
    30     9    28 1
    31     9    29 1
    32    10    30 1
    33    10    31 1
    34    11    32 1
    35    12    33 1
    36    12    34 1
    37    14    35 1
    38    16    36 1
    39    17    37 1
    40    19    38 1
    41    20    39 1
    42    22    40 1
    43    22    41 1
@<TRIPOS>SUBSTRUCTURE
     1 P94         1 TEMP              0 ****  ****    0 ROOT
