@<TRIPOS>MOLECULE
P95
   36    39     1     0     0
SMALL
bcc


@<TRIPOS>ATOM
      1 O19          0.0000     0.0000     0.0000 o          1 P95      -0.612100
      2 C19          1.2170     0.0000     0.0000 c          1 P95       0.612700
      3 N20          1.8910     0.0000     1.1670 ns         1 P95      -0.086400
      4 C21          1.1970    -0.0010     2.3690 ca         1 P95       0.572900
      5 N21         -0.1260    -0.0070     2.3510 nb         1 P95      -0.636000
      6 C37         -0.8180    -0.0070     3.4780 ca         1 P95       0.469700
      7 C39         -0.1400    -0.0020     4.6880 ca         1 P95      -0.387600
      8 C38          1.2460     0.0040     4.6700 ca         1 P95       0.469700
      9 N22          1.8760    -0.0010     3.5070 nb         1 P95      -0.636000
     10 C18          1.9510    -0.0050    -1.2690 cc         1 P95      -0.291600
     11 C17          3.3930    -0.0110    -1.3600 cc         1 P95      -0.083000
     12 C16          3.8370    -0.0160    -2.6100 cd         1 P95      -0.046100
     13 S15          2.5000    -0.0130    -3.7460 ss         1 P95      -0.142800
     14 C14          1.3400    -0.0110    -2.4980 cd         1 P95       0.065500
     15 N13         -0.0300    -0.0130    -2.6970 ns         1 P95       0.050900
     16 C12         -0.5300    -0.0190    -3.9480 c          1 P95       0.496800
     17 O12          0.2230    -0.0220    -4.9040 o          1 P95      -0.597100
     18 C26         -1.9920    -0.0200    -4.1610 cc         1 P95       0.330200
     19 N30         -2.8740    -0.0160    -3.2190 nd         1 P95      -0.397100
     20 C29         -4.1610    -0.0180    -3.5610 ca         1 P95      -0.069900
     21 C28         -4.3560    -0.0250    -4.9540 ca         1 P95       0.004900
     22 S27         -2.7800    -0.0200    -5.7340 ss         1 P95      -0.125100
     23 C31         -5.3150    -0.0150    -2.7460 ca         1 P95       0.481200
     24 N32         -6.5100    -0.0180    -3.2800 nb         1 P95      -0.582000
     25 C33         -6.7100    -0.0250    -4.5880 ca         1 P95       0.423200
     26 C34         -5.6570    -0.0280    -5.4590 ca         1 P95      -0.172300
     27 H1           2.8920     0.0010     1.1670 hn         1 P95       0.184500
     28 H2          -1.9010    -0.0120     3.4570 h4         1 P95      -0.014900
     29 H3          -0.6820    -0.0000     5.6260 ha         1 P95       0.125000
     30 H4           1.8060     0.0060     5.5970 h4         1 P95      -0.014900
     31 H5           4.0450    -0.0120    -0.4950 ha         1 P95       0.118000
     32 H6           4.8840    -0.0200    -2.8910 h4         1 P95       0.152000
     33 H7          -0.6490    -0.0090    -1.9110 hn         1 P95       0.234500
     34 H8          -5.2090    -0.0090    -1.6680 h4         1 P95      -0.006900
     35 H9          -7.7220    -0.0270    -4.9740 h4         1 P95      -0.013900
     36 H10         -5.8300    -0.0340    -6.5290 ha         1 P95       0.124000
@<TRIPOS>BOND
     1     1     2 2   
     2     2     3 1   
     3     2    10 1   
     4     3     4 1   
     5     3    27 1   
     6     4     5 ar  
     7     4     9 ar  
     8     5     6 ar  
     9     6     7 ar  
    10     6    28 1   
    11     7     8 ar  
    12     7    29 1   
    13     8     9 ar  
    14     8    30 1   
    15    10    11 1   
    16    10    14 2   
    17    11    12 2   
    18    11    31 1   
    19    12    13 1   
    20    12    32 1   
    21    13    14 1   
    22    14    15 1   
    23    15    16 1   
    24    15    33 1   
    25    16    17 2   
    26    16    18 1   
    27    18    19 2   
    28    18    22 1   
    29    19    20 1   
    30    20    21 ar  
    31    20    23 ar  
    32    21    22 1   
    33    21    26 ar  
    34    23    24 ar  
    35    23    34 1   
    36    24    25 ar  
    37    25    26 ar  
    38    25    35 1   
    39    26    36 1   
@<TRIPOS>SUBSTRUCTURE
     1 P95         1 TEMP              0 ****  ****    0 ROOT
