@<TRIPOS>MOLECULE
molecule
   36    39     1     0     0
SMALL
bcc


@<TRIPOS>ATOM
      1 O19          0.0000     0.0000     0.0000 o          1 P95      -0.566100
      2 C19          1.2170     0.0000     0.0000 c          1 P95       0.704700
      3 N20          1.8910     0.0000     1.1670 ns         1 P95      -0.526400
      4 C21          1.1970    -0.0010     2.3690 ca         1 P95       0.803900
      5 N21         -0.1260    -0.0070     2.3510 nb         1 P95      -0.752000
      6 C37         -0.8180    -0.0070     3.4780 ca         1 P95       0.486200
      7 C39         -0.1400    -0.0020     4.6880 ca         1 P95      -0.424600
      8 C38          1.2460     0.0040     4.6700 ca         1 P95       0.486200
      9 N22          1.8760    -0.0010     3.5070 nb         1 P95      -0.752000
     10 C18          1.9510    -0.0050    -1.2690 cc         1 P95      -0.271600
     11 C17          3.3930    -0.0110    -1.3600 cc         1 P95      -0.112000
     12 C16          3.8370    -0.0160    -2.6100 cd         1 P95      -0.146100
     13 S15          2.5000    -0.0130    -3.7460 ss         1 P95       0.035200
     14 C14          1.3400    -0.0110    -2.4980 cd         1 P95       0.136500
     15 N13         -0.0300    -0.0130    -2.6970 ns         1 P95      -0.400100
     16 C12         -0.5300    -0.0190    -3.9480 c          1 P95       0.608800
     17 O12          0.2230    -0.0220    -4.9040 o          1 P95      -0.583100
     18 C26         -1.9920    -0.0200    -4.1610 cc         1 P95       0.351200
     19 N30         -2.8740    -0.0160    -3.2190 nd         1 P95      -0.538100
     20 C29         -4.1610    -0.0180    -3.5610 ca         1 P95      -0.017900
     21 C28         -4.3560    -0.0250    -4.9540 ca         1 P95      -0.039100
     22 S27         -2.7800    -0.0200    -5.7340 ss         1 P95      -0.005100
     23 C31         -5.3150    -0.0150    -2.7460 ca         1 P95       0.499200
     24 N32         -6.5100    -0.0180    -3.2800 nb         1 P95      -0.689000
     25 C33         -6.7100    -0.0250    -4.5880 ca         1 P95       0.435200
     26 C34         -5.6570    -0.0280    -5.4590 ca         1 P95      -0.216300
     27 H1           2.8920     0.0010     1.1670 hn         1 P95       0.345500
     28 H2          -1.9010    -0.0120     3.4570 h4         1 P95       0.032100
     29 H3          -0.6820    -0.0000     5.6260 ha         1 P95       0.146000
     30 H4           1.8060     0.0060     5.5970 h4         1 P95       0.032100
     31 H5           4.0450    -0.0120    -0.4950 ha         1 P95       0.146000
     32 H6           4.8840    -0.0200    -2.8910 h4         1 P95       0.174000
     33 H7          -0.6490    -0.0090    -1.9110 hn         1 P95       0.390500
     34 H8          -5.2090    -0.0090    -1.6680 h4         1 P95       0.045100
     35 H9          -7.7220    -0.0270    -4.9740 h4         1 P95       0.032100
     36 H10         -5.8300    -0.0340    -6.5290 ha         1 P95       0.147000
@<TRIPOS>BOND
     1     6     5 ar
     2     6     7 ar
     3     1     2 2
     4     5     4 ar
     5     7     8 ar
     6     2     3 1
     7     2    10 1
     8    11    10 1
     9    11    12 2
    10     4     3 1
    11     4     9 ar
    12     8     9 ar
    13    10    14 2
    14    12    13 1
    15    14    13 1
    16    14    15 1
    17    15    16 1
    18    16    17 2
    19    16    18 1
    20    22    18 1
    21    22    21 1
    22    18    19 2
    23    21    26 ar
    24    21    20 ar
    25    26    25 ar
    26    19    20 1
    27    20    23 ar
    28    25    24 ar
    29    23    24 ar
    30     3    27 1
    31     6    28 1
    32     7    29 1
    33     8    30 1
    34    11    31 1
    35    12    32 1
    36    15    33 1
    37    23    34 1
    38    25    35 1
    39    26    36 1
@<TRIPOS>SUBSTRUCTURE
     1 P95         1 TEMP              0 ****  ****    0 ROOT
