@<TRIPOS>MOLECULE
molecule
   62    64     1     0     0
SMALL
bcc


@<TRIPOS>ATOM
      1 C            0.0000     0.0000     0.0000 ca         1 P96      -0.207000
      2 N            2.0900    -0.0000    -1.2080 nu         1 P96      -0.779600
      3 C01          4.8880     0.2230    -5.4540 ca         1 P96       0.113000
      4 C1           4.6050     0.6330    -7.6600 ca         1 P96      -0.087300
      5 N1           3.4920    -0.4900    -9.6100 n3         1 P96      -0.690600
      6 C02          6.3800     0.0890    -5.7240 ca         1 P96      -0.088000
      7 C2           3.6080     0.6300    -8.7060 c3         1 P96       0.179100
      8 N2           2.3640    -3.9380   -11.8510 n3         1 P96      -0.697600
      9 C03          2.4780    -0.4250   -10.6270 c3         1 P96       0.034300
     10 C3           4.2670     0.9770    -6.2830 ca         1 P96      -0.088000
     11 C04          4.4330    -0.0210    -3.7020 cg         1 P96      -0.137000
     12 C4           6.8100     0.2080    -6.7270 ca         1 P96       0.064900
     13 C05          4.0470    -0.0020    -2.5930 c1         1 P96      -0.152100
     14 C06          3.5550    -0.0020    -1.2050 c3         1 P96       0.269900
     15 C07          1.3900     0.0000     0.0000 ca         1 P96       0.221600
     16 C7           6.0500     0.5230    -8.0340 ca         1 P96       0.088100
     17 C08          2.0810     0.0000     1.2050 ca         1 P96      -0.207000
     18 C8           2.3450    -1.7340   -11.6800 c3         1 P96      -0.009900
     19 C09          1.3850     0.0010     2.3980 ca         1 P96      -0.105000
     20 C10          2.1990    -2.5760   -10.6110 c3         1 P96       0.179500
     21 C12         -0.0420    -3.6910   -12.2790 c3         1 P96      -0.099100
     22 C13          1.8480    -5.2250   -11.0070 c3         1 P96       0.077800
     23 C14          2.4840    -6.1680   -12.0000 c3         1 P96      -0.099100
     24 C15          3.1110    -3.2450    -9.8580 c3         1 P96      -0.009900
     25 C16          3.0760    -1.8690    -8.6640 c3         1 P96       0.034300
     26 C17          0.0020     0.0020     2.3940 ca         1 P96      -0.202000
     27 C18         -0.6890     0.0020     1.1970 ca         1 P96      -0.105000
     28 I2           8.8730    -0.1620    -7.2050 i          1 P96      -0.174900
     29 C11          1.3170    -3.5760   -12.6790 c3         1 P96       0.077800
     30 H           -0.8710     0.2450    -0.5960 ha         1 P96       0.143500
     31 H18         -1.7170     0.3160     1.3370 ha         1 P96       0.128000
     32 HA           1.6380     0.3630    -2.0240 hn         1 P96       0.422800
     33 H061         4.1860     0.3250    -0.3880 h1         1 P96       0.070200
     34 H062         3.5000    -1.0680    -1.0210 h1         1 P96       0.070200
     35 H02          6.9680    -0.1710    -4.8520 ha         1 P96       0.149000
     36 H3           3.1940     1.1120    -6.2170 ha         1 P96       0.144000
     37 H21C         2.8130     1.2790    -8.3590 h1         1 P96       0.040700
     38 H22C         4.0780     1.1900    -9.5070 h1         1 P96       0.040700
     39 H031         1.6080    -0.1540   -10.0420 h1         1 P96       0.048200
     40 H032         2.9360     0.4130   -11.1380 h1         1 P96       0.048200
     41 H161         4.0450    -2.0490    -8.2130 h1         1 P96       0.048200
     42 H162         2.1430    -1.7660    -8.1230 h1         1 P96       0.048200
     43 H1           6.9900     1.5160    -9.2420 ho         1 P96       0.412000
     44 H10          1.1950    -2.9640   -10.4900 h1         1 P96       0.078700
     45 H131         2.6780    -5.2230   -10.3110 h1         1 P96       0.060450
     46 H132         0.8120    -5.1710   -10.6950 h1         1 P96       0.060450
     47 H111         1.4250    -2.9030   -13.5210 h1         1 P96       0.060450
     48 H112         1.1630    -4.3760   -13.3920 h1         1 P96       0.060450
     49 H81C         1.7310    -1.3230   -12.4720 hc         1 P96       0.083950
     50 H82C         3.3470    -1.6320   -12.0780 hc         1 P96       0.083950
     51 H08          3.1260    -0.2310     1.3710 ha         1 P96       0.143500
     52 H09          1.8170    -0.1650     3.3770 ha         1 P96       0.128000
     53 H17         -0.6520    -0.2460     3.2210 ha         1 P96       0.127000
     54 H151         2.8010    -3.8210    -8.9950 hc         1 P96       0.083950
     55 H152         4.1920    -3.2650    -9.9190 hc         1 P96       0.083950
     56 H121        -0.4650    -4.4330   -11.6130 hc         1 P96       0.028033
     57 H122        -0.3270    -2.9760   -11.5170 hc         1 P96       0.028033
     58 H123        -0.8490    -3.7570   -12.9990 hc         1 P96       0.028033
     59 H141         1.7930    -6.2710   -12.8280 hc         1 P96       0.028033
     60 H142         3.5120    -6.0210   -12.3070 hc         1 P96       0.028033
     61 H143         2.5490    -7.1090   -11.4670 hc         1 P96       0.028033
     62 O1           7.1030     0.6230    -8.9620 oh         1 P96      -0.437100
@<TRIPOS>BOND
     1     1    15 ar
     2     1    27 ar
     3     2    14 1
     4     2    15 1
     5     3     6 ar
     6     3    10 ar
     7     3    11 1
     8     4     7 1
     9     4    10 ar
    10     4    16 ar
    11     5     7 1
    12     5     9 1
    13     5    25 1
    14    62    16 1
    15     6    12 ar
    16     8    20 1
    17     8    22 1
    18     8    29 1
    19     9    18 1
    20    11    13 3
    21    12    16 ar
    22    12    28 1
    23    13    14 1
    24    15    17 ar
    25    17    19 ar
    26    18    20 1
    27    19    26 ar
    28    20    24 1
    29    21    29 1
    30    22    23 1
    31    24    25 1
    32    26    27 ar
    33     1    30 1
    34    27    31 1
    35     2    32 1
    36    14    33 1
    37    14    34 1
    38     6    35 1
    39    10    36 1
    40     7    37 1
    41     7    38 1
    42     9    39 1
    43     9    40 1
    44    25    41 1
    45    25    42 1
    46    62    43 1
    47    20    44 1
    48    22    45 1
    49    22    46 1
    50    29    47 1
    51    29    48 1
    52    18    49 1
    53    18    50 1
    54    17    51 1
    55    19    52 1
    56    26    53 1
    57    24    54 1
    58    24    55 1
    59    21    56 1
    60    21    57 1
    61    21    58 1
    62    23    59 1
    63    23    60 1
    64    23    61 1
@<TRIPOS>SUBSTRUCTURE
     1 P96         1 TEMP              0 ****  ****    0 ROOT
