@<TRIPOS>MOLECULE
P96
   63    65     1     0     0
SMALL
bcc


@<TRIPOS>ATOM
      1 C           1.4140    2.5760   -1.1090 ca        1 P96     -0.183000
      2 N           2.0170    0.2270   -1.3350 nh        1 P96     -0.715600
      3 C01         5.3060   -0.0240   -4.9190 ca        1 P96     -0.012000
      4 C1          6.7390    1.5100   -6.1460 ca        1 P96     -0.140300
      5 N1          6.7150    3.8580   -6.9600 n3        1 P96     -0.710600
      6 C02         5.4420   -0.9690   -5.9460 ca        1 P96     -0.023000
      7 C2          7.4530    2.8240   -6.2410 c3        1 P96      0.225100
      8 N2          5.9800    7.3170   -4.3540 n4        1 P96     -0.693400
      9 C03         5.3750    4.1230   -6.4870 c3        1 P96      0.169800
     10 C3          5.9650    1.2110   -5.0290 ca        1 P96     -0.065000
     11 C04         4.5130   -0.2900   -3.7890 cg        1 P96     -0.113000
     12 C4          6.2210   -0.6960   -7.0690 ca        1 P96     -0.070100
     13 C05         3.8390   -0.4930   -2.8190 c1        1 P96     -0.146100
     14 C06         3.0380   -0.7450   -1.6410 c3        1 P96      0.261900
     15 C07         2.3700    1.5370   -0.9720 ca        1 P96      0.149600
     16 C7          6.8730    0.5470   -7.1720 ca        1 P96      0.200100
     17 C08         3.6150    1.8530   -0.3820 ca        1 P96     -0.183000
     18 C8          5.2670    5.0370   -5.2540 c3        1 P96     -0.142400
     19 C09         3.8730    3.1420    0.0740 ca        1 P96     -0.101500
     20 C10         6.0100    6.3470   -5.5260 c3        1 P96      0.135500
     21 C12         4.5720    8.2680   -2.4780 c3        1 P96     -0.133100
     22 C13         6.3680    8.7000   -4.8050 c3        1 P96      0.108300
     23 C14         7.3610    9.3750   -3.8800 c3        1 P96     -0.133100
     24 C15         7.4590    6.0320   -5.9220 c3        1 P96     -0.142400
     25 C16         7.4670    5.0830   -7.1310 c3        1 P96      0.169800
     26 C17         2.9190    4.1490   -0.0540 ca        1 P96     -0.187000
     27 C18         1.6910    3.8560   -0.6460 ca        1 P96     -0.101500
     28 I2          6.3600   -2.1250   -8.4930 i         1 P96     -0.105900
     29 C11         4.6530    7.3210   -3.6570 c3        1 P96      0.108300
     30 H           0.4330    2.3670   -1.5630 ha        1 P96      0.138000
     31 H18         0.9250    4.6400   -0.7390 ha        1 P96      0.129000
     32 HA          1.2440    0.1940   -1.9700 hn        1 P96      0.402800
     33 H061        2.5120   -1.7410   -1.7710 h1        1 P96      0.085200
     34 H062        3.7270   -0.8420   -0.7480 h1        1 P96      0.085200
     35 H02         4.9230   -1.9380   -5.8520 ha        1 P96      0.164000
     36 H3          5.8700    1.9490   -4.2170 ha        1 P96      0.133000
     37 H21C        7.7150    3.1630   -5.1940 h1        1 P96      0.049700
     38 H22C        8.4190    2.6630   -6.8070 h1        1 P96      0.049700
     39 H031        4.8640    3.1490   -6.2420 h1        1 P96      0.079200
     40 H032        4.8130    4.6060   -7.3380 h1        1 P96      0.079200
     41 H161        7.0230    5.6250   -8.0150 h1        1 P96      0.079200
     42 H162        8.5380    4.8380   -7.3780 h1        1 P96      0.079200
     43 H1          7.6960    0.1810   -8.8660 ho        1 P96      0.441000
     44 H10         5.4910    6.8760   -6.3820 hx        1 P96      0.102700
     45 H131        6.8190    8.6310   -5.8370 hx        1 P96      0.102200
     46 H132        5.4290    9.3190   -4.8860 hx        1 P96      0.102200
     47 H111        3.8670    7.5800   -4.4210 hx        1 P96      0.102200
     48 H112        4.4630    6.2720   -3.2810 hx        1 P96      0.102200
     49 H81C        4.1770    5.2220   -5.0720 hc        1 P96      0.066450
     50 H82C        5.6980    4.5170   -4.3590 hc        1 P96      0.066450
     51 H08         4.3890    1.0800   -0.2600 ha        1 P96      0.138000
     52 H09         4.8400    3.3580    0.5540 ha        1 P96      0.129000
     53 H17         3.1210    5.1570    0.3320 ha        1 P96      0.124000
     54 H151        7.9970    5.5490   -5.0640 hc        1 P96      0.066450
     55 H152        8.0160    6.9620   -6.2030 hc        1 P96      0.066450
     56 H121        3.5730    8.1220   -1.9910 hc        1 P96      0.075700
     57 H122        5.3640    8.0540   -1.7190 hc        1 P96      0.075700
     58 H123        4.6500    9.3380   -2.7910 hc        1 P96      0.075700
     59 H141        6.9550    9.4890   -2.8460 hc        1 P96      0.075700
     60 H142        7.5750   10.3960   -4.2870 hc        1 P96      0.075700
     61 H143        8.3250    8.8110   -3.8310 hc        1 P96      0.075700
     62 O1          7.6710    0.9100   -8.2220 oh        1 P96     -0.481100
     63 H21         6.6830    6.9980   -3.6750 hn        1 P96      0.439800
@<TRIPOS>BOND
     1    1   15 ar  
     2    1   27 ar  
     3    1   30 1   
     4    2   14 1   
     5    2   15 1   
     6    2   32 1   
     7    3    6 ar  
     8    3   10 ar  
     9    3   11 1   
    10    4    7 1   
    11    4   10 ar  
    12    4   16 ar  
    13    5    7 1   
    14    5    9 1   
    15    5   25 1   
    16    6   12 ar  
    17    6   35 1   
    18    7   37 1   
    19    7   38 1   
    20    8   20 1   
    21    8   22 1   
    22    8   29 1   
    23    8   63 1   
    24    9   18 1   
    25    9   39 1   
    26    9   40 1   
    27   10   36 1   
    28   11   13 3   
    29   12   16 ar  
    30   12   28 1   
    31   13   14 1   
    32   14   33 1   
    33   14   34 1   
    34   15   17 ar  
    35   16   62 1   
    36   17   19 ar  
    37   17   51 1   
    38   18   20 1   
    39   18   49 1   
    40   18   50 1   
    41   19   26 ar  
    42   19   52 1   
    43   20   24 1   
    44   20   44 1   
    45   21   29 1   
    46   21   56 1   
    47   21   57 1   
    48   21   58 1   
    49   22   23 1   
    50   22   45 1   
    51   22   46 1   
    52   23   59 1   
    53   23   60 1   
    54   23   61 1   
    55   24   25 1   
    56   24   54 1   
    57   24   55 1   
    58   25   41 1   
    59   25   42 1   
    60   26   27 ar  
    61   26   53 1   
    62   27   31 1   
    63   29   47 1   
    64   29   48 1   
    65   43   62 1   
@<TRIPOS>SUBSTRUCTURE
     1 P96         1 TEMP              0 ****  ****    0 ROOT
