@<TRIPOS>MOLECULE
molecule
   53    57     1     0     0
SMALL
bcc


@<TRIPOS>ATOM
      1 C25          0.0000     0.0000     0.0000 ca         1 P98      -0.123000
      2 C15          7.4470    10.7770     2.8070 ca         1 P98      -0.127000
      3 C14          7.9730    10.4560     4.0570 ca         1 P98      -0.119000
      4 C24          1.3830     0.0000     0.0000 ca         1 P98      -0.121000
      5 C26         -0.6940     0.0070     1.1960 ca         1 P98      -0.121000
      6 C16          6.6190     9.9140     2.1550 ca         1 P98      -0.110000
      7 C9           5.4370     7.7660     2.1100 ca         1 P98      -0.081000
      8 C13          7.6790     9.2730     4.6600 ca         1 P98      -0.164300
      9 C4           4.2250     1.3920     6.0770 ca         1 P98      -0.033000
     10 C23          2.0750     0.0000     1.1950 ca         1 P98      -0.122500
     11 C27         -0.0080     0.0070     2.3940 ca         1 P98      -0.122500
     12 C1           4.6020     2.6070     5.5810 ca         1 P98      -0.226000
     13 C10          5.1610     6.5900     2.7490 ca         1 P98      -0.232300
     14 C3           3.2850     2.2500     3.5970 ca         1 P98      -0.164000
     15 C11          6.2900     8.6850     2.7510 ca         1 P98      -0.155300
     16 C12          6.8330     8.3530     4.0170 ca         1 P98       0.424600
     17 C17          3.3680     0.5720     5.3360 ca         1 P98       0.061400
     18 C18          2.8970     1.0100     4.0870 ca         1 P98      -0.051200
     19 C22          1.3810     0.0010     2.3970 ca         1 P98      -0.004200
     20 C2           4.1410     3.0420     4.3410 ca         1 P98       0.152100
     21 C7           5.7200     6.3310     3.9980 ca         1 P98       0.436600
     22 C20          2.0840    -0.9930     4.5440 cc         1 P98       0.432800
     23 C29          2.3010    -3.4620     4.4620 c3         1 P98      -0.083100
     24 C30          0.3390    -2.4080     5.5960 c3         1 P98      -0.083100
     25 C6           5.4040     5.0270     4.6860 c3         1 P98       0.092100
     26 C28          1.3200    -2.2870     4.4280 c3         1 P98      -0.076000
     27 N8           6.5220     7.1840     4.5870 nb         1 P98      -0.686000
     28 N21          2.8320    -0.6580     5.5530 nd         1 P98      -0.593100
     29 N19          2.0800     0.0020     3.6110 na         1 P98      -0.084400
     30 H1          -0.5410    -0.0000    -0.9390 ha         1 P98       0.135000
     31 H3           8.6300    11.1600     4.5550 ha         1 P98       0.133000
     32 H4           1.9240    -0.0030    -0.9390 ha         1 P98       0.138000
     33 H5          -1.7780     0.0090     1.1930 ha         1 P98       0.138000
     34 H6           6.2160    10.1740     1.1840 ha         1 P98       0.134000
     35 H7           5.0120     7.9850     1.1390 ha         1 P98       0.141000
     36 H8           8.0970     9.0390     5.6320 ha         1 P98       0.148000
     37 H9           4.5890     1.0630     7.0420 ha         1 P98       0.145000
     38 H10          3.1580    -0.0020     1.1940 ha         1 P98       0.146000
     39 H11         -0.5520     0.0100     3.3310 ha         1 P98       0.146000
     40 H12          5.2710     3.2360     6.1550 ha         1 P98       0.140000
     41 H13          4.4640     5.8860     2.3100 ha         1 P98       0.158000
     42 H14          2.9280     2.5900     2.6330 ha         1 P98       0.145000
     43 H15          1.7650    -4.3850     4.2710 hc         1 P98       0.043200
     44 H16          2.7700    -3.5120     5.4370 hc         1 P98       0.043200
     45 H17          3.0600    -3.3220     3.7020 hc         1 P98       0.043200
     46 H18         -0.3630    -3.2080     5.3970 hc         1 P98       0.043200
     47 H19         -0.2000    -1.4750     5.7120 hc         1 P98       0.043200
     48 H20          0.8850    -2.6250     6.5060 hc         1 P98       0.043200
     49 H21          6.3210     4.4760     4.8550 h1         1 P98       0.060700
     50 H22          4.9240     5.2280     5.6370 h1         1 P98       0.060700
     51 H23          0.7730    -2.3010     3.4930 hc         1 P98       0.059700
     52 O5           4.5270     4.2550     3.8630 os         1 P98      -0.336900
     53 H2           7.6970    11.7260     2.3490 ha         1 P98       0.131000
@<TRIPOS>BOND
     1     6     2 ar
     2     6    15 ar
     3     2     3 ar
     4     7    15 ar
     5     7    13 ar
     6    15    16 ar
     7     3     8 ar
     8    13    21 ar
     9    16     8 ar
    10    16    27 ar
    11    12     9 ar
    12    12    20 ar
    13    21    27 ar
    14    21    25 1
    15    52    20 1
    16    52    25 1
    17     9    17 ar
    18    20    14 ar
    19    17    28 1
    20    17    18 ar
    21    14    18 ar
    22    28    22 2
    23    18    29 1
    24    22    29 1
    25    22    26 1
    26    29    19 1
    27    23    26 1
    28    26    24 1
    29    19    10 ar
    30    19    11 ar
    31    10     4 ar
    32    11     5 ar
    33     4     1 ar
    34     5     1 ar
    35     1    30 1
    36     2    53 1
    37     3    31 1
    38     4    32 1
    39     5    33 1
    40     6    34 1
    41     7    35 1
    42     8    36 1
    43     9    37 1
    44    10    38 1
    45    11    39 1
    46    12    40 1
    47    13    41 1
    48    14    42 1
    49    23    43 1
    50    23    44 1
    51    23    45 1
    52    24    46 1
    53    24    47 1
    54    24    48 1
    55    25    49 1
    56    25    50 1
    57    26    51 1
@<TRIPOS>SUBSTRUCTURE
     1 P98         1 TEMP              0 ****  ****    0 ROOT
