@<TRIPOS>MOLECULE
P98
   53    53     1     0     0
SMALL
bcc


@<TRIPOS>ATOM
      1 C25        -0.5520   -3.1860   -1.0720 c2        1 P98     -0.198500
      2 C15         7.4840   11.9620    4.1830 c2        1 P98     -0.058000
      3 C14         7.7510   11.9600    5.6020 c2        1 P98     -0.467000
      4 C24        -1.3140   -4.0450   -0.4670 c1        1 P98     -0.160000
      5 C26         1.3770   -0.8580    0.5370 c1        1 P98      0.103000
      6 C16         6.9730   10.9380    3.4820 c2        1 P98     -0.137000
      7 C9          5.4550    8.9830    3.5590 c2        1 P98     -0.088000
      8 C13         8.4650   12.8290    6.2880 c1        1 P98      0.224000
      9 C4          4.4710    1.7880    6.4370 c1        1 P98     -0.032000
     10 C23        -2.0780   -4.9030    0.1390 c2        1 P98     -0.198500
     11 C27         1.9470   -0.0050    1.2650 c1        1 P98     -0.618000
     12 C1          4.9150    3.1580    6.1610 c3        1 P98     -0.220000
     13 C10         5.1510    7.7160    4.0540 c2        1 P98     -0.148000
     14 C3          4.0210    3.0480    3.8110 c2        1 P98     -0.237000
     15 C11         6.6270    9.6250    3.9880 c2        1 P98     -0.082000
     16 C12         7.4580    8.9250    4.8950 c2        1 P98     -0.066000
     17 C17         3.8290    1.1080    5.3930 c2        1 P98     -0.177000
     18 C18         3.6130    1.7220    4.1110 c2        1 P98      0.050000
     19 C22         2.5640    0.9210    2.0180 c2        1 P98      0.320000
     20 C2          4.6510    3.7430    4.8160 c2        1 P98      0.102000
     21 C7          6.0390    7.1070    4.9630 c2        1 P98     -0.036000
     22 C20         2.7970   -0.4100    4.1630 c2        1 P98     -0.121000
     23 C29         1.8940   -3.5730    2.3360 c3        1 P98     -0.284500
     24 C30         0.5590   -3.2270    4.4530 c3        1 P98     -0.284500
     25 C6          5.7110    5.7520    5.5370 c3        1 P98      0.022000
     26 C28         1.5470   -2.7950    3.4950 c1        1 P98     -0.049000
     27 N8          7.1870    7.7020    5.3750 n2        1 P98     -0.132000
     28 N21         3.3010   -0.2140    5.3680 n2        1 P98     -0.090000
     29 N19         2.9550    0.7640    3.3110 na        1 P98     -0.163000
     30 H1          0.0680   -2.4470   -0.5300 ha        1 P98      0.137750
     31 H3          7.2840   11.1310    6.1840 ha        1 P98      0.201000
     32 H4         -1.7240   -5.9010    0.4330 ha        1 P98      0.137750
     33 H5         -0.4820   -3.1420   -2.1690 ha        1 P98      0.137750
     34 H6          6.7720   11.0770    2.4030 ha        1 P98      0.137000
     35 H7          4.7820    9.4780    2.8440 ha        1 P98      0.145000
     36 H8          8.4100    9.3720    5.2400 h4        1 P98      0.170000
     37 H9          6.0300    3.1670    6.3580 hc        1 P98      0.165500
     38 H10        -3.1250   -4.6820    0.3900 ha        1 P98      0.137750
     39 H11         2.8000    1.9240    1.5850 h4        1 P98      0.148000
     40 H12         4.4400    3.8110    6.9520 hc        1 P98      0.165500
     41 H13         4.2410    7.1860    3.7380 ha        1 P98      0.158000
     42 H14         3.8430    3.4990    2.8260 ha        1 P98      0.153000
     43 H15         3.0100   -3.6070    2.2210 hc        1 P98      0.126500
     44 H16         1.4860   -4.6140    2.3060 hc        1 P98      0.126500
     45 H17         1.4980   -3.0030    1.4370 hc        1 P98      0.126500
     46 H18         0.0670   -4.2090    4.2390 hc        1 P98      0.126500
     47 H19        -0.2330   -2.4320    4.5310 hc        1 P98      0.126500
     48 H20         1.0590   -3.2800    5.4610 hc        1 P98      0.126500
     49 H21         5.0320    5.8730    6.4230 h1        1 P98      0.107500
     50 H22         6.6350    5.1870    5.8340 h1        1 P98      0.107500
     51 H23         2.2590   -1.4060    3.7720 h5        1 P98      0.332000
     52 O5          5.0190    5.0270    4.5030 os        1 P98     -0.208000
     53 H2          7.7140   12.9080    3.6600 ha        1 P98      0.133000
@<TRIPOS>BOND
     1    1    4 1   
     2    1   30 1   
     3    1   33 1   
     4    2    3 1   
     5    2    6 1   
     6    2   53 1   
     7    3    8 1   
     8    3   31 1   
     9    4   10 1   
    10    5   11 1   
    11    6   15 1   
    12    6   34 1   
    13    7   13 1   
    14    7   15 1   
    15    7   35 1   
    16    9   12 1   
    17    9   17 1   
    18   10   32 1   
    19   10   38 1   
    20   11   19 1   
    21   12   20 1   
    22   12   37 1   
    23   12   40 1   
    24   13   21 1   
    25   13   41 1   
    26   14   18 1   
    27   14   20 1   
    28   14   42 1   
    29   15   16 1   
    30   16   27 1   
    31   16   36 1   
    32   17   18 1   
    33   17   28 1   
    34   18   29 1   
    35   19   29 1   
    36   19   39 1   
    37   20   52 1   
    38   21   25 1   
    39   21   27 1   
    40   22   28 1   
    41   22   29 1   
    42   22   51 1   
    43   23   26 1   
    44   23   43 1   
    45   23   44 1   
    46   23   45 1   
    47   24   26 1   
    48   24   46 1   
    49   24   47 1   
    50   24   48 1   
    51   25   49 1   
    52   25   50 1   
    53   25   52 1   
@<TRIPOS>SUBSTRUCTURE
     1 P98         1 TEMP              0 ****  ****    0 ROOT
