@<TRIPOS>MOLECULE
P99
   43    44     1     0     0
SMALL
bcc


@<TRIPOS>ATOM
      1 N01          0.0000     0.0000     0.0000 nz         1 P99       0.202600
      2 C02          1.3480     0.0000     0.0000 c          1 P99       0.289100
      3 O03          1.9550     0.0000     1.0500 o          1 P99      -0.351100
      4 C04          2.1010     0.0000    -1.3050 c3         1 P99       0.149400
      5 O05          3.5060     0.0000    -1.0440 os         1 P99      -0.263900
      6 C06          4.3350     0.0000    -2.1240 ca         1 P99      -0.011900
      7 C07          4.7520    -1.2020    -2.6790 ca         1 P99       0.143900
      8 F08          4.3370    -2.3720    -2.1460 f          1 P99      -0.113400
      9 C09          5.5950    -1.2020    -3.7760 ca         1 P99      -0.137000
     10 C10          6.0220     0.0010    -4.3240 ca         1 P99       0.123900
     11 S11          7.0920     0.0010    -5.7230 ss         1 P99      -0.262000
     12 C12          7.3480     1.7690    -6.0400 c3         1 P99       0.059700
     13 C13          8.2740     1.9410    -7.2470 c3         1 P99       0.250800
     14 N14          8.4790     3.3690    -7.5030 n7         1 P99      -0.596100
     15 S15          9.7110     3.8630    -8.4960 sy         1 P99       1.046200
     16 O16          9.6240     5.2790    -8.5680 o          1 P99      -0.577300
     17 O17         10.8760     3.1760    -8.0610 o          1 P99      -0.577300
     18 C18          9.3520     3.2580   -10.1120 ca         1 P99      -0.142500
     19 C19          8.6110     4.0300   -10.9880 ca         1 P99      -0.004500
     20 C20          8.3300     3.5560   -12.2570 ca         1 P99      -0.135500
     21 C21          8.7880     2.3120   -12.6480 ca         1 P99      -0.043000
     22 C22          9.5290     1.5420   -11.7710 ca         1 P99      -0.135500
     23 C23          9.8160     2.0180   -10.5040 ca         1 P99      -0.004500
     24 C24          5.6030     1.2040    -3.7690 ca         1 P99      -0.137000
     25 C25          4.7580     1.2030    -2.6740 ca         1 P99       0.143900
     26 F26          4.3460     2.3720    -2.1380 f          1 P99      -0.113400
     27 HN01        -0.3340     0.7890    -0.5180 hn         1 P99       0.247467
     28 HN0A        -0.3340     0.0540     0.9420 hn         1 P99       0.247467
     29 H04          1.8390    -0.8840    -1.8730 h1         1 P99       0.035200
     30 H04A         1.8390     0.8850    -1.8730 h1         1 P99       0.035200
     31 H09          5.9200    -2.1400    -4.2090 ha         1 P99       0.148500
     32 H12          6.3950     2.2400    -6.2450 h1         1 P99       0.045700
     33 H12A         7.8000     2.2300    -5.1700 h1         1 P99       0.045700
     34 H13          9.2270     1.4700    -7.0420 h1         1 P99       0.031700
     35 H13A         7.8220     1.4790    -8.1170 h1         1 P99       0.031700
     36 HN14         7.8960     4.0470    -7.0550 hn         1 P99       0.347800
     37 H19          8.2200     4.9890   -10.6690 ha         1 P99       0.127000
     38 H20          7.7510     4.1600   -12.9450 ha         1 P99       0.112000
     39 H21          8.5610     1.9380   -13.6390 ha         1 P99       0.105000
     40 H22          9.8840     0.5640   -12.0750 ha         1 P99       0.112000
     41 H23         10.6140     1.3920   -10.1260 ha         1 P99       0.127000
     42 H24          5.9340     2.1420    -4.1960 ha         1 P99       0.148500
     43 H013        -0.3340    -0.8340    -0.4410 hn         1 P99       0.247467
@<TRIPOS>BOND
     1     1     2 1   
     2     1    27 1   
     3     1    28 1   
     4     1    43 1   
     5     2     3 2   
     6     2     4 1   
     7     4     5 1   
     8     4    29 1   
     9     4    30 1   
    10     5     6 1   
    11     6     7 ar  
    12     6    25 ar  
    13     7     8 1   
    14     7     9 ar  
    15     9    10 ar  
    16     9    31 1   
    17    10    11 1   
    18    10    24 ar  
    19    11    12 1   
    20    12    13 1   
    21    12    32 1   
    22    12    33 1   
    23    13    14 1   
    24    13    34 1   
    25    13    35 1   
    26    14    15 1   
    27    14    36 1   
    28    15    16 2   
    29    15    17 2   
    30    15    18 1   
    31    18    19 ar  
    32    18    23 ar  
    33    19    20 ar  
    34    19    37 1   
    35    20    21 ar  
    36    20    38 1   
    37    21    22 ar  
    38    21    39 1   
    39    22    23 ar  
    40    22    40 1   
    41    23    41 1   
    42    24    25 ar  
    43    24    42 1   
    44    25    26 1   
@<TRIPOS>SUBSTRUCTURE
     1 P99         1 TEMP              0 ****  ****    0 ROOT
