@<TRIPOS>MOLECULE
molecule
   43    44     1     0     0
SMALL
bcc


@<TRIPOS>ATOM
      1 N01          0.0000     0.0000     0.0000 nz         1 P99      -0.683400
      2 C02          1.3480     0.0000     0.0000 c          1 P99       0.467100
      3 O03          1.9550     0.0000     1.0500 o          1 P99      -0.347100
      4 C04          2.1010     0.0000    -1.3050 c3         1 P99       0.066400
      5 O05          3.5060     0.0000    -1.0440 os         1 P99      -0.281900
      6 C06          4.3350     0.0000    -2.1240 ca         1 P99      -0.040900
      7 C07          4.7520    -1.2020    -2.6790 ca         1 P99       0.181900
      8 F08          4.3370    -2.3720    -2.1460 f          1 P99      -0.120900
      9 C09          5.5950    -1.2020    -3.7760 ca         1 P99      -0.184500
     10 C10          6.0220     0.0010    -4.3240 ca         1 P99       0.100900
     11 S11          7.0920     0.0010    -5.7230 ss         1 P99      -0.157000
     12 C12          7.3480     1.7690    -6.0400 c3         1 P99      -0.033300
     13 C13          8.2740     1.9410    -7.2470 c3         1 P99       0.252800
     14 N14          8.4790     3.3690    -7.5030 n7         1 P99      -0.917100
     15 S15          9.7110     3.8630    -8.4960 sy         1 P99       1.423200
     16 O16          9.6240     5.2790    -8.5680 o          1 P99      -0.626300
     17 O17         10.8760     3.1760    -8.0610 o          1 P99      -0.626300
     18 C18          9.3520     3.2580   -10.1120 ca         1 P99      -0.300500
     19 C19          8.6110     4.0300   -10.9880 ca         1 P99      -0.038500
     20 C20          8.3300     3.5560   -12.2570 ca         1 P99      -0.153500
     21 C21          8.7880     2.3120   -12.6480 ca         1 P99      -0.072000
     22 C22          9.5290     1.5420   -11.7710 ca         1 P99      -0.153500
     23 C23          9.8160     2.0180   -10.5040 ca         1 P99      -0.038500
     24 C24          5.6030     1.2040    -3.7690 ca         1 P99      -0.184500
     25 C25          4.7580     1.2030    -2.6740 ca         1 P99       0.181900
     26 F26          4.3460     2.3720    -2.1380 f          1 P99      -0.120900
     27 HN01        -0.3340     0.7890    -0.5180 hn         1 P99       0.479800
     28 HN0A        -0.3340     0.0540     0.9420 hn         1 P99       0.479800
     29 H04          1.8390    -0.8840    -1.8730 h1         1 P99       0.078200
     30 H04A         1.8390     0.8850    -1.8730 h1         1 P99       0.078200
     31 H09          5.9200    -2.1400    -4.2090 ha         1 P99       0.172500
     32 H12          6.3950     2.2400    -6.2450 h1         1 P99       0.075200
     33 H12A         7.8000     2.2300    -5.1700 h1         1 P99       0.075200
     34 H13          9.2270     1.4700    -7.0420 h1         1 P99       0.065200
     35 H13A         7.8220     1.4790    -8.1170 h1         1 P99       0.065200
     36 HN14         7.8960     4.0470    -7.0550 hn         1 P99       0.453800
     37 H19          8.2200     4.9890   -10.6690 ha         1 P99       0.156000
     38 H20          7.7510     4.1600   -12.9450 ha         1 P99       0.140500
     39 H21          8.5610     1.9380   -13.6390 ha         1 P99       0.137000
     40 H22          9.8840     0.5640   -12.0750 ha         1 P99       0.140500
     41 H23         10.6140     1.3920   -10.1260 ha         1 P99       0.156000
     42 H24          5.9340     2.1420    -4.1960 ha         1 P99       0.172500
     43 H013        -0.3340    -0.8340    -0.4410 hn         1 P99       0.479800
@<TRIPOS>BOND
     1     2     1 1
     2     1    27 1
     3     1    28 1
     4     3     2 2
     5     2     4 1
     6     5     4 1
     7     4    29 1
     8     4    30 1
     9     5     6 1
    10     7     6 ar
    11     6    25 ar
    12     8     7 1
    13     7     9 ar
    14     9    10 ar
    15     9    31 1
    16    10    11 1
    17    10    24 ar
    18    11    12 1
    19    12    13 1
    20    12    32 1
    21    12    33 1
    22    14    13 1
    23    13    34 1
    24    13    35 1
    25    14    15 1
    26    14    36 1
    27    16    15 2
    28    15    17 2
    29    15    18 1
    30    23    18 ar
    31    18    19 ar
    32    19    20 ar
    33    19    37 1
    34    21    20 ar
    35    20    38 1
    36    22    21 ar
    37    21    39 1
    38    23    22 ar
    39    22    40 1
    40    23    41 1
    41    25    24 ar
    42    24    42 1
    43    25    26 1
    44    43     1 1
@<TRIPOS>SUBSTRUCTURE
     1 P99         1 TEMP              0 ****  ****    0 ROOT
