@<TRIPOS>MOLECULE
P9A
   60    64     1     0     0
SMALL
bcc


@<TRIPOS>ATOM
      1 O16          0.0000     0.0000     0.0000 os         1 P9A      -0.396600
      2 O19          4.3270    -2.9410    -2.5270 o          1 P9A      -0.531100
      3 O20          3.9200     0.8580    -4.5330 o          1 P9A      -0.592100
      4 O32          3.4200     4.6690    -6.9110 o          1 P9A      -0.879800
      5 O33          3.9470     4.7360    -9.0670 o          1 P9A      -0.879800
      6 N28          2.3810    -0.1600    -5.7650 ns         1 P9A      -0.023100
      7 C1           3.0470     0.0200    -4.6070 c          1 P9A       0.546100
      8 C2           2.7050    -0.8200    -3.4030 c3         1 P9A      -0.130400
      9 C3           3.6000    -0.4180    -2.2300 c3         1 P9A      -0.007400
     10 C4           3.3510    -1.3710    -1.0420 c3         1 P9A      -0.145000
     11 C5           3.7090    -2.7710    -1.5070 c          1 P9A       0.611100
     12 C6           3.2680    -3.9400    -0.6550 c3         1 P9A      -0.127400
     13 C7           1.7440    -3.8530    -0.5190 c3         1 P9A       0.001600
     14 C8           1.3340    -2.5270     0.0650 c3         1 P9A      -0.057000
     15 C9           1.8890    -1.3110    -0.6610 c3         1 P9A      -0.075700
     16 C10          1.4610     0.0000     0.0000 c3         1 P9A       0.192100
     17 C11          1.7200     0.0000     1.5250 c3         1 P9A      -0.074400
     18 C12          0.7750    -1.1630     1.9560 c3         1 P9A      -0.074700
     19 C13          1.5880    -2.4390     1.5820 c3         1 P9A      -0.031400
     20 C14         -0.2180    -2.3740     0.0420 c3         1 P9A      -0.053400
     21 C15         -0.3660    -1.0820     0.8960 c3         1 P9A       0.148800
     22 C17         -1.7560    -0.9140     1.5140 c3         1 P9A       0.020900
     23 C18          4.3020    -0.9770     0.0850 c3         1 P9A      -0.000100
     24 C22          3.3620     2.6140    -8.0090 ca         1 P9A      -0.151600
     25 C23          2.9720     1.9180    -6.8550 ca         1 P9A       0.196100
     26 C24          2.7710     0.5440    -6.9150 ca         1 P9A      -0.200400
     27 C25          2.9580    -0.1340    -8.1170 ca         1 P9A       0.098100
     28 C26          3.3450     0.5600    -9.2580 ca         1 P9A      -0.211000
     29 C27          3.5420     1.9200    -9.2110 ca         1 P9A      -0.025000
     30 HO30         2.0780    -1.6670    -8.7940 ho         1 P9A       0.383000
     31 HO31         1.9210     2.9450    -5.6620 ho         1 P9A       0.389000
     32 HN28         1.5870    -0.7680    -5.7960 hn         1 P9A       0.146500
     33 H2           2.8630    -1.8660    -3.6360 hc         1 P9A       0.034700
     34 H2A          1.6670    -0.6620    -3.1360 hc         1 P9A       0.034700
     35 H3           4.6390    -0.4790    -2.5310 hc         1 P9A       0.046200
     36 H3A          3.3700     0.5980    -1.9330 hc         1 P9A       0.046200
     37 H6           3.7290    -3.8770     0.3230 hc         1 P9A       0.034700
     38 H6A          3.5410    -4.8710    -1.1380 hc         1 P9A       0.034700
     39 H7           1.2940    -3.9650    -1.4970 hc         1 P9A       0.019200
     40 H7A          1.4000    -4.6480     0.1310 hc         1 P9A       0.019200
     41 H9           1.3710    -1.3110    -1.6120 hc         1 P9A       0.058700
     42 H10          1.8720     0.8730    -0.4920 h1         1 P9A       0.064700
     43 H11          1.4180     0.9380     1.9740 hc         1 P9A       0.035700
     44 H11A         2.7540    -0.2310     1.7470 hc         1 P9A       0.035700
     45 H12          0.4430    -1.1190     2.9870 hc         1 P9A       0.043700
     46 H13          1.1980    -3.3120     2.0920 hc         1 P9A       0.024700
     47 H13A         2.6420    -2.3030     1.7920 hc         1 P9A       0.024700
     48 H14         -0.7040    -3.2170     0.5170 hc         1 P9A       0.030700
     49 H14A        -0.5830    -2.2220    -0.9670 hc         1 P9A       0.030700
     50 H17         -1.8040     0.0290     2.0450 hc         1 P9A       0.008367
     51 H17A        -2.5040    -0.9250     0.7300 hc         1 P9A       0.008367
     52 H17B        -1.9460    -1.7280     2.2040 hc         1 P9A       0.008367
     53 H18          5.3250    -1.1450    -0.2300 hc         1 P9A       0.014700
     54 H18A         4.0910    -1.5770     0.9620 hc         1 P9A       0.014700
     55 H18B         4.1650     0.0710     0.3240 hc         1 P9A       0.014700
     56 H26          3.4860     0.0270   -10.1910 ha         1 P9A       0.095000
     57 H27          3.8430     2.4540   -10.1040 ha         1 P9A       0.130000
     58 C21          3.5760     4.0680    -7.9560 c          1 P9A       0.976200
     59 O31          2.7910     2.5820    -5.6860 oh         1 P9A      -0.450100
     60 O30          2.7620    -1.4760    -8.1740 oh         1 P9A      -0.503100
@<TRIPOS>BOND
     1     1    16 1   
     2     1    21 1   
     3     2    11 2   
     4     3     7 2   
     5     4    58 1   
     6     5    58 1   
     7     6     7 1   
     8     6    26 1   
     9     6    32 1   
    10     7     8 1   
    11     8     9 1   
    12     8    33 1   
    13     8    34 1   
    14     9    10 1   
    15     9    35 1   
    16     9    36 1   
    17    10    11 1   
    18    10    15 1   
    19    10    23 1   
    20    11    12 1   
    21    12    13 1   
    22    12    37 1   
    23    12    38 1   
    24    13    14 1   
    25    13    39 1   
    26    13    40 1   
    27    14    15 1   
    28    14    19 1   
    29    14    20 1   
    30    15    16 1   
    31    15    41 1   
    32    16    17 1   
    33    16    42 1   
    34    17    18 1   
    35    17    43 1   
    36    17    44 1   
    37    18    19 1   
    38    18    21 1   
    39    18    45 1   
    40    19    46 1   
    41    19    47 1   
    42    20    21 1   
    43    20    48 1   
    44    20    49 1   
    45    21    22 1   
    46    22    50 1   
    47    22    51 1   
    48    22    52 1   
    49    23    53 1   
    50    23    54 1   
    51    23    55 1   
    52    24    25 ar  
    53    24    29 ar  
    54    24    58 1   
    55    25    26 ar  
    56    25    59 1   
    57    26    27 ar  
    58    27    28 ar  
    59    27    60 1   
    60    28    29 ar  
    61    28    56 1   
    62    29    57 1   
    63    30    60 1   
    64    31    59 1   
@<TRIPOS>SUBSTRUCTURE
     1 P9A         1 TEMP              0 ****  ****    0 ROOT
