@<TRIPOS>MOLECULE
P9B
   34    35     1     0     0
SMALL
bcc


@<TRIPOS>ATOM
      1 C1           0.0000     0.0000     0.0000 ca         1 P9B      -0.259500
      2 N1          -1.1250    -1.5830    -1.9500 nz         1 P9B      -0.133500
      3 O1          -2.1620     0.5450    -1.2510 o          1 P9B      -0.496300
      4 S1          -0.8800    -0.0000    -1.5270 sy         1 P9B       0.933200
      5 C2           1.3830     0.0000     0.0000 ca         1 P9B       0.040500
      6 O2           0.0040     0.5430    -2.4990 o          1 P9B      -0.496300
      7 C3           2.0750     0.0000     1.1950 ca         1 P9B      -0.148000
      8 C4           1.3810     0.0020     2.3990 ca         1 P9B       0.035600
      9 C5          -0.0080     0.0030     2.3950 ca         1 P9B      -0.148000
     10 C6          -0.6940     0.0070     1.1970 ca         1 P9B       0.040500
     11 N7           2.0800     0.0030     3.6100 ns         1 P9B      -0.031100
     12 C8           3.3120     0.5430     3.6780 c          1 P9B       0.543100
     13 O8           3.7830     1.1060     2.7080 o          1 P9B      -0.647100
     14 N9           4.0240     0.4590     4.8200 ns         1 P9B      -0.012100
     15 C10          5.2770     1.0820     4.9130 ca         1 P9B      -0.124400
     16 C11          5.5080     2.2820     4.2520 ca         1 P9B       0.108900
     17 F11          4.5250     2.8510     3.5210 f          1 P9B      -0.095900
     18 C12          6.7460     2.8960     4.3460 ca         1 P9B       0.092900
     19 F12          6.9710     4.0630     3.7050 f          1 P9B      -0.087400
     20 C13          7.7540     2.3130     5.0980 ca         1 P9B       0.099900
     21 F13          8.9620     2.9140     5.1880 f          1 P9B      -0.085900
     22 C14          7.5250     1.1160     5.7580 ca         1 P9B       0.092900
     23 F14          8.5090     0.5500     6.4900 f          1 P9B      -0.087400
     24 C15          6.2870     0.5020     5.6700 ca         1 P9B       0.108900
     25 F15          6.0630    -0.6630     6.3180 f          1 P9B      -0.095900
     26 HN1         -0.2410    -2.0410    -2.0530 hn         1 P9B       0.312133
     27 H2           1.9240    -0.0020    -0.9380 ha         1 P9B       0.124500
     28 H3           3.1580    -0.0000     1.1950 ha         1 P9B       0.154500
     29 H5          -0.5520     0.0070     3.3320 ha         1 P9B       0.154500
     30 H6          -1.7770     0.0080     1.1940 ha         1 P9B       0.124500
     31 HN7          1.6680    -0.4070     4.4250 hn         1 P9B       0.177500
     32 HN9          3.6480    -0.0310     5.6080 hn         1 P9B       0.178500
     33 HN1A        -1.6250    -1.6230    -2.8160 hn         1 P9B       0.312133
     34 H13         -1.6560    -2.0400    -1.2360 hn         1 P9B       0.312133
@<TRIPOS>BOND
     1     1     4 1   
     2     1     5 ar  
     3     1    10 ar  
     4     2     4 1   
     5     2    26 1   
     6     2    33 1   
     7     2    34 1   
     8     3     4 2   
     9     4     6 2   
    10     5     7 ar  
    11     5    27 1   
    12     7     8 ar  
    13     7    28 1   
    14     8     9 ar  
    15     8    11 1   
    16     9    10 ar  
    17     9    29 1   
    18    10    30 1   
    19    11    12 1   
    20    11    31 1   
    21    12    13 2   
    22    12    14 1   
    23    14    15 1   
    24    14    32 1   
    25    15    16 ar  
    26    15    24 ar  
    27    16    17 1   
    28    16    18 ar  
    29    18    19 1   
    30    18    20 ar  
    31    20    21 1   
    32    20    22 ar  
    33    22    23 1   
    34    22    24 ar  
    35    24    25 1   
@<TRIPOS>SUBSTRUCTURE
     1 P9B         1 TEMP              0 ****  ****    0 ROOT
