@<TRIPOS>MOLECULE
molecule
   70    75     1     0     0
SMALL
bcc


@<TRIPOS>ATOM
      1 O16          0.0000     0.0000     0.0000 os         1 P9C      -0.406600
      2 O19          4.3770    -2.9540    -2.4720 o          1 P9C      -0.513100
      3 O20          4.3840     0.8920    -4.4070 o          1 P9C      -0.558100
      4 O32          5.7780     2.7150    -9.9480 o          1 P9C      -0.829300
      5 O33          4.7330     1.0150    -8.9740 o          1 P9C      -0.829300
      6 N28          6.5800     0.6110    -4.2690 ns         1 P9C      -0.474100
      7 C1           5.3280     0.4220    -3.8080 c          1 P9C       0.653100
      8 C2           5.1000    -0.3750    -2.5500 c3         1 P9C      -0.172400
      9 C3           3.6010    -0.4390    -2.2510 c3         1 P9C      -0.052400
     10 C4           3.3570    -1.3650    -1.0400 c3         1 P9C      -0.159000
     11 C5           3.7320    -2.7720    -1.4690 c          1 P9C       0.578100
     12 C6           3.2830    -3.9320    -0.6100 c3         1 P9C      -0.173400
     13 C7           1.7520    -3.8590    -0.5100 c3         1 P9C       0.005600
     14 C8           1.3350    -2.5240     0.0510 c3         1 P9C      -0.054000
     15 C9           1.8930    -1.3070    -0.6660 c3         1 P9C      -0.075700
     16 C10          1.4620     0.0000     0.0000 c3         1 P9C       0.148100
     17 C11          1.7150     0.0000     1.5260 c3         1 P9C      -0.113400
     18 C12          0.7720    -1.1700     1.9510 c3         1 P9C      -0.100700
     19 C13          1.5930    -2.4370     1.5720 c3         1 P9C      -0.076400
     20 C14         -0.2140    -2.3700     0.0270 c3         1 P9C      -0.090400
     21 C15         -0.3690    -1.0850     0.8930 c3         1 P9C       0.131800
     22 C17         -1.7600    -0.9230     1.5080 c3         1 P9C      -0.068100
     23 C18          4.3000    -0.9320     0.0790 c3         1 P9C      -0.082100
     24 C22          6.3130     2.0990    -7.6460 ca         1 P9C      -0.132600
     25 C23          6.0850     1.2570    -6.5480 ca         1 P9C       0.160100
     26 C24          6.8020     1.4480    -5.3730 ca         1 P9C      -0.026400
     27 C25          7.7430     2.4720    -5.2930 ca         1 P9C       0.070100
     28 C26          7.9670     3.3040    -6.3840 ca         1 P9C      -0.212000
     29 C27          7.2650     3.1200    -7.5540 ca         1 P9C      -0.071000
     30 C34          0.2880    -5.1330    -2.0910 ca         1 P9C      -0.131000
     31 C35          1.4670    -3.2180    -2.9130 ca         1 P9C      -0.131000
     32 C36         -0.2650    -5.3300    -3.3430 ca         1 P9C      -0.120000
     33 C37          0.0490    -4.4710    -4.3800 ca         1 P9C      -0.129000
     34 C38          0.9150    -3.4150    -4.1640 ca         1 P9C      -0.120000
     35 C39          1.1490    -4.0740    -1.8760 ca         1 P9C      -0.090300
     36 HO30         9.3650     2.5510    -4.3190 ho         1 P9C       0.397000
     37 HO31         5.5650    -0.5020    -7.0140 ho         1 P9C       0.411000
     38 HN28         7.3460     0.1170    -3.8540 hn         1 P9C       0.305500
     39 H2           5.4850    -1.3790    -2.6840 hc         1 P9C       0.065700
     40 H2A          5.6140     0.1010    -1.7230 hc         1 P9C       0.065700
     41 H3           3.0770    -0.8280    -3.1150 hc         1 P9C       0.068700
     42 H3A          3.2360     0.5560    -2.0240 hc         1 P9C       0.068700
     43 H6           3.5770    -4.8660    -1.0730 hc         1 P9C       0.067200
     44 H6A          3.7200    -3.8490     0.3770 hc         1 P9C       0.067200
     45 H7           1.4090    -4.6410     0.1570 hc         1 P9C       0.056700
     46 H9           1.3790    -1.3020    -1.6200 hc         1 P9C       0.080700
     47 H10          1.8720     0.8760    -0.4890 h1         1 P9C       0.099700
     48 H11          1.4070     0.9360     1.9750 hc         1 P9C       0.057200
     49 H11A         2.7500    -0.2270     1.7520 hc         1 P9C       0.057200
     50 H12          0.4410    -1.1320     2.9820 hc         1 P9C       0.068700
     51 H13          1.2110    -3.3140     2.0810 hc         1 P9C       0.046700
     52 H13A         2.6470    -2.2930     1.7790 hc         1 P9C       0.046700
     53 H14         -0.5770    -2.2100    -0.9810 hc         1 P9C       0.061700
     54 H14A        -0.7000    -3.2180     0.4930 hc         1 P9C       0.061700
     55 H17         -1.8100     0.0160     2.0450 hc         1 P9C       0.042367
     56 H17A        -1.9500    -1.7410     2.1920 hc         1 P9C       0.042367
     57 H17B        -2.5050    -0.9290     0.7220 hc         1 P9C       0.042367
     58 H18          5.3100    -1.2420    -0.1590 hc         1 P9C       0.041033
     59 H18A         4.2680     0.1460     0.1810 hc         1 P9C       0.041033
     60 H18B         3.9920    -1.3920     1.0100 hc         1 P9C       0.041033
     61 H26          8.7030     4.0950    -6.3160 ha         1 P9C       0.115000
     62 H27          7.4440     3.7710    -8.4010 ha         1 P9C       0.161000
     63 H34          0.0430    -5.8060    -1.2790 ha         1 P9C       0.137000
     64 H35          2.1460    -2.3900    -2.7440 ha         1 P9C       0.137000
     65 H36         -0.9420    -6.1590    -3.5130 ha         1 P9C       0.136500
     66 H37         -0.3840    -4.6250    -5.3610 ha         1 P9C       0.130000
     67 H38          1.1620    -2.7430    -4.9770 ha         1 P9C       0.136500
     68 C21          5.5570     1.9050    -8.8940 c          1 P9C       0.883200
     69 O31          5.1670     0.2620    -6.6300 oh         1 P9C      -0.471100
     70 O30          8.4440     2.6580    -4.1450 oh         1 P9C      -0.526100
@<TRIPOS>BOND
     1     1    16 1
     2     1    21 1
     3    11     2 2
     4     7     3 2
     5    27    70 1
     6    70    36 1
     7    25    69 1
     8    69    37 1
     9    68     4 1
    10     5    68 1
    11    26     6 1
    12     6     7 1
    13     6    38 1
    14     7     8 1
    15     8     9 1
    16     8    39 1
    17     8    40 1
    18     9    10 1
    19     9    41 1
    20     9    42 1
    21    15    10 1
    22    23    10 1
    23    10    11 1
    24    11    12 1
    25    13    12 1
    26    12    43 1
    27    12    44 1
    28    14    13 1
    29    13    35 1
    30    13    45 1
    31    15    14 1
    32    19    14 1
    33    20    14 1
    34    16    15 1
    35    15    46 1
    36    17    16 1
    37    16    47 1
    38    17    18 1
    39    17    48 1
    40    17    49 1
    41    18    21 1
    42    18    19 1
    43    18    50 1
    44    19    51 1
    45    19    52 1
    46    21    20 1
    47    20    53 1
    48    20    54 1
    49    22    21 1
    50    22    55 1
    51    22    56 1
    52    22    57 1
    53    23    58 1
    54    23    59 1
    55    23    60 1
    56    68    24 1
    57    29    24 ar
    58    24    25 ar
    59    25    26 ar
    60    27    26 ar
    61    28    27 ar
    62    29    28 ar
    63    28    61 1
    64    29    62 1
    65    35    30 ar
    66    30    32 ar
    67    30    63 1
    68    35    31 ar
    69    31    34 ar
    70    31    64 1
    71    32    33 ar
    72    32    65 1
    73    34    33 ar
    74    33    66 1
    75    34    67 1
@<TRIPOS>SUBSTRUCTURE
     1 P9C         1 TEMP              0 ****  ****    0 ROOT
