@<TRIPOS>MOLECULE
P9C
   70    75     1     0     0
SMALL
bcc


@<TRIPOS>ATOM
      1 O16          0.0000     0.0000     0.0000 os         1 P9C      -0.395600
      2 O19          4.3770    -2.9540    -2.4720 o          1 P9C      -0.537100
      3 O20          4.3840     0.8920    -4.4070 o          1 P9C      -0.601100
      4 O32          5.7780     2.7150    -9.9480 o          1 P9C      -0.879300
      5 O33          4.7330     1.0150    -8.9740 o          1 P9C      -0.879300
      6 N28          6.5800     0.6110    -4.2690 ns         1 P9C      -0.023100
      7 C1           5.3280     0.4220    -3.8080 c          1 P9C       0.548100
      8 C2           5.1000    -0.3750    -2.5500 c3         1 P9C      -0.141400
      9 C3           3.6010    -0.4390    -2.2510 c3         1 P9C      -0.007400
     10 C4           3.3570    -1.3650    -1.0400 c3         1 P9C      -0.151000
     11 C5           3.7320    -2.7720    -1.4690 c          1 P9C       0.620100
     12 C6           3.2830    -3.9320    -0.6100 c3         1 P9C      -0.123400
     13 C7           1.7520    -3.8590    -0.5100 c3         1 P9C       0.040600
     14 C8           1.3350    -2.5240     0.0510 c3         1 P9C      -0.049000
     15 C9           1.8930    -1.3070    -0.6660 c3         1 P9C      -0.077700
     16 C10          1.4620     0.0000     0.0000 c3         1 P9C       0.194100
     17 C11          1.7150     0.0000     1.5260 c3         1 P9C      -0.076400
     18 C12          0.7720    -1.1700     1.9510 c3         1 P9C      -0.074700
     19 C13          1.5930    -2.4370     1.5720 c3         1 P9C      -0.034400
     20 C14         -0.2140    -2.3700     0.0270 c3         1 P9C      -0.053400
     21 C15         -0.3690    -1.0850     0.8930 c3         1 P9C       0.147800
     22 C17         -1.7600    -0.9230     1.5080 c3         1 P9C       0.021900
     23 C18          4.3000    -0.9320     0.0790 c3         1 P9C      -0.010100
     24 C22          6.3130     2.0990    -7.6460 ca         1 P9C      -0.152600
     25 C23          6.0850     1.2570    -6.5480 ca         1 P9C       0.199100
     26 C24          6.8020     1.4480    -5.3730 ca         1 P9C      -0.202400
     27 C25          7.7430     2.4720    -5.2930 ca         1 P9C       0.099100
     28 C26          7.9670     3.3040    -6.3840 ca         1 P9C      -0.212000
     29 C27          7.2650     3.1200    -7.5540 ca         1 P9C      -0.024000
     30 C34          0.2880    -5.1330    -2.0910 ca         1 P9C      -0.122500
     31 C35          1.4670    -3.2180    -2.9130 ca         1 P9C      -0.122500
     32 C36         -0.2650    -5.3300    -3.3430 ca         1 P9C      -0.088000
     33 C37          0.0490    -4.4710    -4.3800 ca         1 P9C      -0.104000
     34 C38          0.9150    -3.4150    -4.1640 ca         1 P9C      -0.088000
     35 C39          1.1490    -4.0740    -1.8760 ca         1 P9C      -0.095300
     36 HO30         9.3650     2.5510    -4.3190 ho         1 P9C       0.384000
     37 HO31         5.5650    -0.5020    -7.0140 ho         1 P9C       0.391000
     38 HN28         7.3460     0.1170    -3.8540 hn         1 P9C       0.146500
     39 H2           5.4850    -1.3790    -2.6840 hc         1 P9C       0.042700
     40 H2A          5.6140     0.1010    -1.7230 hc         1 P9C       0.042700
     41 H3           3.0770    -0.8280    -3.1150 hc         1 P9C       0.043200
     42 H3A          3.2360     0.5560    -2.0240 hc         1 P9C       0.043200
     43 H6           3.5770    -4.8660    -1.0730 hc         1 P9C       0.038700
     44 H6A          3.7200    -3.8490     0.3770 hc         1 P9C       0.038700
     45 H7           1.4090    -4.6410     0.1570 hc         1 P9C       0.031700
     46 H9           1.3790    -1.3020    -1.6200 hc         1 P9C       0.068700
     47 H10          1.8720     0.8760    -0.4890 h1         1 P9C       0.060700
     48 H11          1.4070     0.9360     1.9750 hc         1 P9C       0.034200
     49 H11A         2.7500    -0.2270     1.7520 hc         1 P9C       0.034200
     50 H12          0.4410    -1.1320     2.9820 hc         1 P9C       0.042700
     51 H13          1.2110    -3.3140     2.0810 hc         1 P9C       0.024700
     52 H13A         2.6470    -2.2930     1.7790 hc         1 P9C       0.024700
     53 H14         -0.5770    -2.2100    -0.9810 hc         1 P9C       0.037700
     54 H14A        -0.7000    -3.2180     0.4930 hc         1 P9C       0.037700
     55 H17         -1.8100     0.0160     2.0450 hc         1 P9C       0.008367
     56 H17A        -1.9500    -1.7410     2.1920 hc         1 P9C       0.008367
     57 H17B        -2.5050    -0.9290     0.7220 hc         1 P9C       0.008367
     58 H18          5.3100    -1.2420    -0.1590 hc         1 P9C       0.017033
     59 H18A         4.2680     0.1460     0.1810 hc         1 P9C       0.017033
     60 H18B         3.9920    -1.3920     1.0100 hc         1 P9C       0.017033
     61 H26          8.7030     4.0950    -6.3160 ha         1 P9C       0.095000
     62 H27          7.4440     3.7710    -8.4010 ha         1 P9C       0.130000
     63 H34          0.0430    -5.8060    -1.2790 ha         1 P9C       0.124000
     64 H35          2.1460    -2.3900    -2.7440 ha         1 P9C       0.124000
     65 H36         -0.9420    -6.1590    -3.5130 ha         1 P9C       0.108500
     66 H37         -0.3840    -4.6250    -5.3610 ha         1 P9C       0.103000
     67 H38          1.1620    -2.7430    -4.9770 ha         1 P9C       0.108500
     68 C21          5.5570     1.9050    -8.8940 c          1 P9C       0.976200
     69 O31          5.1670     0.2620    -6.6300 oh         1 P9C      -0.451100
     70 O30          8.4440     2.6580    -4.1450 oh         1 P9C      -0.505100
@<TRIPOS>BOND
     1     1    16 1   
     2     1    21 1   
     3     2    11 2   
     4     3     7 2   
     5     4    68 1   
     6     5    68 1   
     7     6     7 1   
     8     6    26 1   
     9     6    38 1   
    10     7     8 1   
    11     8     9 1   
    12     8    39 1   
    13     8    40 1   
    14     9    10 1   
    15     9    41 1   
    16     9    42 1   
    17    10    11 1   
    18    10    15 1   
    19    10    23 1   
    20    11    12 1   
    21    12    13 1   
    22    12    43 1   
    23    12    44 1   
    24    13    14 1   
    25    13    35 1   
    26    13    45 1   
    27    14    15 1   
    28    14    19 1   
    29    14    20 1   
    30    15    16 1   
    31    15    46 1   
    32    16    17 1   
    33    16    47 1   
    34    17    18 1   
    35    17    48 1   
    36    17    49 1   
    37    18    19 1   
    38    18    21 1   
    39    18    50 1   
    40    19    51 1   
    41    19    52 1   
    42    20    21 1   
    43    20    53 1   
    44    20    54 1   
    45    21    22 1   
    46    22    55 1   
    47    22    56 1   
    48    22    57 1   
    49    23    58 1   
    50    23    59 1   
    51    23    60 1   
    52    24    25 ar  
    53    24    29 ar  
    54    24    68 1   
    55    25    26 ar  
    56    25    69 1   
    57    26    27 ar  
    58    27    28 ar  
    59    27    70 1   
    60    28    29 ar  
    61    28    61 1   
    62    29    62 1   
    63    30    32 ar  
    64    30    35 ar  
    65    30    63 1   
    66    31    34 ar  
    67    31    35 ar  
    68    31    64 1   
    69    32    33 ar  
    70    32    65 1   
    71    33    34 ar  
    72    33    66 1   
    73    34    67 1   
    74    36    70 1   
    75    37    69 1   
@<TRIPOS>SUBSTRUCTURE
     1 P9C         1 TEMP              0 ****  ****    0 ROOT
