@<TRIPOS>MOLECULE
P9I
   31    33     1     0     0
SMALL
bcc


@<TRIPOS>ATOM
      1 O          -0.0060    0.1790    0.0500 oh        1 P9I     -0.489100
      2 C2          1.3550    0.1990    0.0640 c2        1 P9I      0.236900
      3 C1          2.0400    0.3200    1.3720 c3        1 P9I     -0.125900
      4 C3          2.0150    0.1140   -1.1360 cc        1 P9I     -0.164100
      5 N2          1.4280    0.0020   -2.4420 na        1 P9I      0.079700
      6 C15         0.1210   -0.0570   -2.8120 ca        1 P9I     -0.025300
      7 C14        -0.2120   -0.1700   -4.1670 ca        1 P9I     -0.148000
      8 C13         0.7950   -0.2240   -5.1380 ca        1 P9I     -0.040000
      9 C12         2.1390   -0.1640   -4.7600 ca        1 P9I     -0.097000
     10 C11         2.4590   -0.0470   -3.4030 ca        1 P9I      0.048900
     11 C5          3.7450    0.0360   -2.6880 cd        1 P9I     -0.126000
     12 C4          3.4720    0.1330   -1.3420 cc        1 P9I     -0.065000
     13 C6          5.0600    0.0340   -3.3130 ca        1 P9I      0.442100
     14 N1          5.1730    0.4470   -4.6070 nb        1 P9I     -0.675000
     15 C10         6.3980    0.4640   -5.1490 ca        1 P9I      0.410200
     16 C9          7.5670    0.0760   -4.4610 ca        1 P9I     -0.212300
     17 C8          7.4430   -0.3550   -3.1430 ca        1 P9I     -0.083000
     18 C7          6.1760   -0.3800   -2.5520 ca        1 P9I     -0.216300
     19 H          -0.3440    0.2540    0.9610 ho        1 P9I      0.470000
     20 H11C        1.5930   -0.3980    2.1090 hc        1 P9I      0.095367
     21 H12C        3.1340    0.1080    1.2930 hc        1 P9I      0.095367
     22 H13C        1.9080    1.3630    1.7670 hc        1 P9I      0.095367
     23 H4          4.1870    0.2250   -0.5230 ha        1 P9I      0.185000
     24 H15        -0.6490   -0.0140   -2.0150 h4        1 P9I      0.213000
     25 H14        -1.2760   -0.2150   -4.4500 ha        1 P9I      0.190000
     26 H13         0.5280   -0.3130   -6.2060 ha        1 P9I      0.183000
     27 H12         2.9440   -0.2020   -5.5140 ha        1 P9I      0.213000
     28 H7          6.0510   -0.7230   -1.5170 ha        1 P9I      0.144000
     29 H10         6.4490    0.8110   -6.1990 h4        1 P9I      0.040100
     30 H9          8.5450    0.1140   -4.9620 ha        1 P9I      0.165000
     31 H8          8.3270   -0.6740   -2.5690 ha        1 P9I      0.158000
@<TRIPOS>BOND
     1    1    2 1   
     2    1   19 1   
     3    2    3 1   
     4    2    4 2   
     5    3   20 1   
     6    3   21 1   
     7    3   22 1   
     8    4    5 1   
     9    4   12 1   
    10    5    6 1   
    11    5   10 2   
    12    6    7 ar  
    13    6   24 1   
    14    7    8 ar  
    15    7   25 1   
    16    8    9 ar  
    17    8   26 1   
    18    9   10 ar  
    19    9   27 1   
    20   10   11 1   
    21   11   12 2   
    22   11   13 1   
    23   12   23 1   
    24   13   14 ar  
    25   13   18 ar  
    26   14   15 ar  
    27   15   16 ar  
    28   15   29 1   
    29   16   17 ar  
    30   16   30 1   
    31   17   18 ar  
    32   17   31 1   
    33   18   28 1   
@<TRIPOS>SUBSTRUCTURE
     1 P9I         1 TEMP              0 ****  ****    0 ROOT
