@<TRIPOS>MOLECULE
molecule
   31    33     1     0     0
SMALL
bcc


@<TRIPOS>ATOM
      1 O            0.0000     0.0000     0.0000 oh         1 P9I      -0.487100
      2 C2           1.3450     0.0000     0.0000 c2         1 P9I       0.239900
      3 C1           2.0990     0.0000     1.3040 c3         1 P9I      -0.105900
      4 C3           2.0260     0.0000    -1.1840 cc         1 P9I      -0.178100
      5 N2           1.4540     0.0000    -2.4320 na         1 P9I       0.138700
      6 C15          0.1690    -0.0010    -2.7910 ca         1 P9I      -0.061300
      7 C14         -0.1990    -0.0020    -4.1140 ca         1 P9I      -0.127000
      8 C13          0.7830    -0.0000    -5.1040 ca         1 P9I      -0.050000
      9 C12          2.1070     0.0010    -4.7180 ca         1 P9I      -0.086000
     10 C11          2.4210     0.0010    -3.3560 ca         1 P9I       0.019900
     11 C5           3.7180     0.0010    -2.6540 cd         1 P9I      -0.114000
     12 C4           3.4340     0.0060    -1.3170 cc         1 P9I      -0.087000
     13 C6           5.0590     0.0020    -3.2750 ca         1 P9I       0.465100
     14 N1           5.1730     0.0010    -4.5990 nb         1 P9I      -0.700000
     15 C10          6.3510     0.0020    -5.1900 ca         1 P9I       0.432200
     16 C9           7.5180     0.0030    -4.4490 ca         1 P9I      -0.219300
     17 C8           7.4440     0.0030    -3.0610 ca         1 P9I      -0.080000
     18 C7           6.1970     0.0080    -2.4660 ca         1 P9I      -0.216300
     19 H           -0.3140     0.5740     0.6790 ho         1 P9I       0.469000
     20 H11C         1.4140    -0.2050     2.1180 hc         1 P9I       0.090367
     21 H12C         2.8670    -0.7640     1.2770 hc         1 P9I       0.090367
     22 H13C         2.5590     0.9690     1.4550 hc         1 P9I       0.090367
     23 H4           4.0400     0.5920    -0.6370 ha         1 P9I       0.189000
     24 H15         -0.5970    -0.0020    -2.0260 h4         1 P9I       0.207000
     25 H14         -1.2470    -0.0020    -4.3880 ha         1 P9I       0.188000
     26 H13          0.5120    -0.0010    -6.1530 ha         1 P9I       0.183000
     27 H12          2.8950     0.0020    -5.4620 ha         1 P9I       0.212000
     28 H7           6.1040     0.0070    -1.3860 ha         1 P9I       0.142000
     29 H10          6.4060     0.0020    -6.2720 h4         1 P9I       0.040100
     30 H9           8.4810     0.0010    -4.9450 ha         1 P9I       0.160000
     31 H8           8.3450     0.0050    -2.4590 ha         1 P9I       0.158000
@<TRIPOS>BOND
     1     1     2 1
     2     2     3 1
     3     2     4 2
     4     4     5 1
     5     4    12 1
     6     5     6 1
     7     5    10 2
     8     6     7 ar
     9     7     8 ar
    10     8     9 ar
    11     9    10 ar
    12    10    11 1
    13    11    12 2
    14    11    13 1
    15    13    14 ar
    16    13    18 ar
    17    14    15 ar
    18    15    16 ar
    19    16    17 ar
    20    17    18 ar
    21     1    19 1
    22     3    20 1
    23     3    21 1
    24     3    22 1
    25    12    23 1
    26     6    24 1
    27     7    25 1
    28     8    26 1
    29     9    27 1
    30    18    28 1
    31    15    29 1
    32    16    30 1
    33    17    31 1
@<TRIPOS>SUBSTRUCTURE
     1 P9I         1 TEMP              0 ****  ****    0 ROOT
