@<TRIPOS>MOLECULE
P9J
   39    42     1     0     0
SMALL
bcc


@<TRIPOS>ATOM
      1 C1           0.0000     0.0000     0.0000 c          1 P9J       0.593100
      2 N2           1.3490     0.0000     0.0000 n          1 P9J       0.293000
      3 C3          -0.7090     0.0080     1.2860 ca         1 P9J      -0.127600
      4 C4          -2.1010     0.0140     1.3600 ca         1 P9J      -0.029000
      5 C5          -2.7160     0.0200     2.5930 ca         1 P9J      -0.101000
      6 C6          -1.9640     0.0220     3.7600 ca         1 P9J      -0.073000
      7 C7          -0.5870     0.0160     3.7100 ca         1 P9J      -0.097000
      8 C8           0.0580     0.0080     2.4720 ca         1 P9J      -0.148900
      9 C9           1.5210     0.0020     2.3630 cc         1 P9J       0.491800
     10 N10          2.0850     0.0000     1.1850 nd         1 P9J      -0.627300
     11 C11          2.0280    -0.0010    -1.2230 ca         1 P9J      -0.078400
     12 C12          3.0600     0.9020    -1.4470 ca         1 P9J      -0.086000
     13 C13          3.7300     0.8980    -2.6540 ca         1 P9J      -0.096000
     14 C14          3.3730    -0.0040    -3.6400 ca         1 P9J      -0.100000
     15 C15          2.3470    -0.9050    -3.4210 ca         1 P9J      -0.096000
     16 C16          1.6780    -0.9090    -2.2130 ca         1 P9J      -0.086000
     17 N17          2.3060     0.0030     3.5120 nu         1 P9J      -0.316900
     18 C18          3.6970     0.1180     3.4090 cc         1 P9J       0.455200
     19 C19          4.4190     0.3670     2.2300 cc         1 P9J      -0.346300
     20 C20          5.7330     0.4070     2.5490 cd         1 P9J      -0.244600
     21 N21          5.8430     0.1930     3.8770 na         1 P9J       0.461400
     22 N22          4.5540     0.0200     4.3980 nd         1 P9J      -0.717800
     23 C23          6.8710     0.6480     1.5910 c3         1 P9J       0.101200
     24 O24         -0.6190     0.0000    -1.0480 o          1 P9J      -0.673500
     25 H4          -2.6950     0.0130     0.4540 ha         1 P9J       0.131000
     26 H5          -3.7980     0.0250     2.6520 ha         1 P9J       0.109000
     27 H6          -2.4650     0.0260     4.7200 ha         1 P9J       0.106000
     28 H7          -0.0080     0.0170     4.6250 ha         1 P9J       0.110000
     29 H12          3.3390     1.6090    -0.6750 ha         1 P9J       0.118000
     30 H13          4.5340     1.6020    -2.8300 ha         1 P9J       0.103000
     31 H14          3.8980    -0.0040    -4.5880 ha         1 P9J       0.101000
     32 H15          2.0720    -1.6110    -4.1950 ha         1 P9J       0.103000
     33 H16          0.8730    -1.6150    -2.0410 ha         1 P9J       0.118000
     34 HN17         1.8790    -0.1170     4.4090 hn         1 P9J       0.291800
     35 H19          3.9990     0.5020     1.2410 ha         1 P9J       0.186000
     36 H23          6.8180    -0.0680     0.7800 hc         1 P9J       0.009700
     37 H23A         7.8130     0.5330     2.1140 hc         1 P9J       0.009700
     38 H23B         6.8010     1.6520     1.1920 hc         1 P9J       0.009700
     39 HN21         6.6970     0.1680     4.4000 hn         1 P9J       0.144700
@<TRIPOS>BOND
     1     1     2 1   
     2     1     3 1   
     3     1    24 2   
     4     2    10 1   
     5     2    11 1   
     6     3     4 ar  
     7     3     8 ar  
     8     4     5 ar  
     9     4    25 1   
    10     5     6 ar  
    11     5    26 1   
    12     6     7 ar  
    13     6    27 1   
    14     7     8 ar  
    15     7    28 1   
    16     8     9 1   
    17     9    10 2   
    18     9    17 1   
    19    11    12 ar  
    20    11    16 ar  
    21    12    13 ar  
    22    12    29 1   
    23    13    14 ar  
    24    13    30 1   
    25    14    15 ar  
    26    14    31 1   
    27    15    16 ar  
    28    15    32 1   
    29    16    33 1   
    30    17    18 1   
    31    17    34 1   
    32    18    19 1   
    33    18    22 2   
    34    19    20 2   
    35    19    35 1   
    36    20    21 1   
    37    20    23 1   
    38    21    22 1   
    39    21    39 1   
    40    23    36 1   
    41    23    37 1   
    42    23    38 1   
@<TRIPOS>SUBSTRUCTURE
     1 P9J         1 TEMP              0 ****  ****    0 ROOT
