@<TRIPOS>MOLECULE
P9L
   41    43     1     0     0
SMALL
bcc


@<TRIPOS>ATOM
      1 O3           0.0000     0.0000     0.0000 o          1 P9L      -0.588800
      2 S            1.4220     0.0000     0.0000 sy         1 P9L       1.058200
      3 O2           2.1990     0.0000     1.1890 o          1 P9L      -0.588800
      4 N3           1.8900    -1.3320    -0.8660 n3         1 P9L      -0.532500
      5 C14          3.2130    -1.9420    -0.6610 c3         1 P9L       0.192800
      6 C13          3.0230    -3.4460    -0.4390 c3         1 P9L       0.200400
      7 O4           2.2350    -3.9840    -1.5040 os         1 P9L      -0.409600
      8 C12          0.9120    -3.4460    -1.5800 c3         1 P9L       0.200400
      9 C11          0.9920    -1.9450    -1.8570 c3         1 P9L       0.192800
     10 C5           1.9190     1.4190    -0.9190 ca         1 P9L      -0.196500
     11 C4           1.0580     1.9770    -1.8510 ca         1 P9L       0.048000
     12 C6           3.1650     1.9790    -0.7050 ca         1 P9L       0.047000
     13 C7           3.5610     3.0930    -1.4200 ca         1 P9L      -0.191000
     14 C8           2.7050     3.6520    -2.3590 ca         1 P9L      -0.000400
     15 C3           1.4510     3.0850    -2.5640 ca         1 P9L      -0.182300
     16 C2           0.5420     3.7220    -3.5890 c3         1 P9L       0.121300
     17 N2           3.0870     4.7760    -3.0920 n          1 P9L       0.026000
     18 C9           4.4120     5.3520    -2.8490 c3         1 P9L       0.049300
     19 C10          2.2970     5.3510    -4.0080 c          1 P9L       0.621500
     20 O1           2.7140     6.3290    -4.6000 o          1 P9L      -0.730500
     21 N1           1.0620     4.9050    -4.2980 n          1 P9L      -0.157800
     22 C1           0.2460     5.5820    -5.3070 c3         1 P9L       0.119300
     23 H141         3.6850    -1.5030     0.2090 h1         1 P9L       0.029200
     24 H142         3.8280    -1.7780    -1.5380 h1         1 P9L       0.029200
     25 H111         1.3840    -1.7800    -2.8530 h1         1 P9L       0.029200
     26 H112         0.0040    -1.5070    -1.7720 h1         1 P9L       0.029200
     27 H131         3.9910    -3.9340    -0.4260 h1         1 P9L       0.014450
     28 H132         2.5160    -3.6110     0.5040 h1         1 P9L       0.014450
     29 H121         0.3710    -3.9320    -2.3830 h1         1 P9L       0.014450
     30 H122         0.4000    -3.6130    -0.6400 h1         1 P9L       0.014450
     31 H4           0.0460     1.6030    -1.9450 ha         1 P9L       0.126000
     32 H6           3.8320     1.5460     0.0300 ha         1 P9L       0.121000
     33 H7           4.5380     3.5280    -1.2490 ha         1 P9L       0.127000
     34 H21C        -0.3730     4.0120    -3.0870 h1         1 P9L       0.016200
     35 H22C         0.3000     2.9710    -4.3310 h1         1 P9L       0.016200
     36 H91C         4.5550     6.2120    -3.4930 h1         1 P9L       0.027367
     37 H92C         4.4870     5.6610    -1.8130 h1         1 P9L       0.027367
     38 H93C         5.1730     4.6110    -3.0610 h1         1 P9L       0.027367
     39 H11C         0.7600     5.5610    -6.2610 h1         1 P9L       0.012033
     40 H12C         0.0820     6.6110    -5.0080 h1         1 P9L       0.012033
     41 H13C        -0.7070     5.0770    -5.4000 h1         1 P9L       0.012033
@<TRIPOS>BOND
     1     1     2 2   
     2     2     3 2   
     3     2     4 1   
     4     2    10 1   
     5     4     5 1   
     6     4     9 1   
     7     5     6 1   
     8     5    23 1   
     9     5    24 1   
    10     6     7 1   
    11     6    27 1   
    12     6    28 1   
    13     7     8 1   
    14     8     9 1   
    15     8    29 1   
    16     8    30 1   
    17     9    25 1   
    18     9    26 1   
    19    10    11 ar  
    20    10    12 ar  
    21    11    15 ar  
    22    11    31 1   
    23    12    13 ar  
    24    12    32 1   
    25    13    14 ar  
    26    13    33 1   
    27    14    15 ar  
    28    14    17 1   
    29    15    16 1   
    30    16    21 1   
    31    16    34 1   
    32    16    35 1   
    33    17    18 1   
    34    17    19 1   
    35    18    36 1   
    36    18    37 1   
    37    18    38 1   
    38    19    20 2   
    39    19    21 1   
    40    21    22 1   
    41    22    39 1   
    42    22    40 1   
    43    22    41 1   
@<TRIPOS>SUBSTRUCTURE
     1 P9L         1 TEMP              0 ****  ****    0 ROOT
