@<TRIPOS>MOLECULE
P9M
   46    48     1     0     0
SMALL
bcc


@<TRIPOS>ATOM
      1 O3          0.2750   -0.4880    0.1580 o         1 P9M     -0.574800
      2 S           1.5640   -0.0150    0.0030 sy        1 P9M      1.480200
      3 O2          2.4810   -0.1540    1.0270 o         1 P9M     -0.574800
      4 N2          2.1880   -1.2520   -1.3150 n4        1 P9M     -0.704900
      5 C13         3.3640   -2.0760   -0.9010 c3        1 P9M      0.125500
      6 C17         3.4820   -3.3900   -1.6970 c3        1 P9M     -0.099400
      7 C16         4.4590   -3.1290   -2.8350 c3        1 P9M     -0.092900
      8 C15         5.1980   -1.8350   -2.5140 c3        1 P9M     -0.092900
      9 C14         4.7030   -1.3570   -1.1570 c3        1 P9M     -0.099400
     10 C11         1.7290    1.3260   -0.8690 ca        1 P9M     -0.531500
     11 C9          0.7820    1.7770   -1.8200 ca        1 P9M      0.075700
     12 C10        -0.4340    0.9890   -2.1300 c3        1 P9M     -0.103800
     13 C8          0.9800    3.0000   -2.4690 ca        1 P9M     -0.153000
     14 C7          2.0850    3.7930   -2.1870 ca        1 P9M      0.000000
     15 C12         2.8490    2.1500   -0.6030 ca        1 P9M     -0.021000
     16 C6          3.0370    3.3780   -1.2330 ca        1 P9M      0.012000
     17 C5          4.1720    4.2020   -0.9140 cc        1 P9M     -0.328600
     18 C2          4.2210    5.6750   -0.8680 cc        1 P9M      0.346600
     19 C1          3.1000    6.5980   -1.1270 c3        1 P9M     -0.143400
     20 C3          5.4610    3.8080   -0.5700 cd        1 P9M      0.309000
     21 C4          6.1630    2.5370   -0.3960 c3        1 P9M     -0.152400
     22 O1          6.2170    4.9740   -0.3530 os        1 P9M     -0.091100
     23 N1          5.4710    6.0460   -0.5250 nd        1 P9M     -0.329300
     24 H2          2.4280   -0.7680   -2.1780 hn        1 P9M      0.445300
     25 H13         3.2300   -2.2900    0.2000 hx        1 P9M      0.115700
     26 H171        3.8900   -4.1730   -1.0050 hc        1 P9M      0.074950
     27 H172        2.4990   -3.7660   -2.0750 hc        1 P9M      0.074950
     28 H141        5.4140   -1.6690   -0.3470 hc        1 P9M      0.074950
     29 H142        4.6170   -0.2430   -1.1110 hc        1 P9M      0.074950
     30 H161        3.9180   -3.0410   -3.8100 hc        1 P9M      0.067200
     31 H162        5.1760   -3.9830   -2.9340 hc        1 P9M      0.067200
     32 H151        6.3050   -2.0020   -2.4890 hc        1 P9M      0.067200
     33 H152        4.9990   -1.0640   -3.3000 hc        1 P9M      0.067200
     34 H12         3.5920    1.8190    0.1500 ha        1 P9M      0.169000
     35 H101       -1.1310    0.9880   -1.2490 hc        1 P9M      0.078033
     36 H102       -0.1830   -0.0740   -2.3700 hc        1 P9M      0.078033
     37 H103       -0.9850    1.4200   -3.0040 hc        1 P9M      0.078033
     38 H8          0.2410    3.3440   -3.2140 ha        1 P9M      0.171000
     39 H7          2.2260    4.7540   -2.7150 ha        1 P9M      0.174000
     40 H11C        2.1350    6.1210   -0.8240 hc        1 P9M      0.067033
     41 H12C        3.0580    6.8510   -2.2170 hc        1 P9M      0.067033
     42 H13C        3.2190    7.5530   -0.5540 hc        1 P9M      0.067033
     43 H41C        5.7230    1.7590   -1.0670 hc        1 P9M      0.073033
     44 H42C        6.0720    2.1970    0.6690 hc        1 P9M      0.073033
     45 H43C        7.2520    2.6540   -0.6330 hc        1 P9M      0.073033
     46 H22         1.4190   -1.8900   -1.5330 hn        1 P9M      0.445300
@<TRIPOS>BOND
     1    1    2 2
     2    2    3 2
     3    2    4 1
     4    2   10 1
     5    4    5 1
     6    4   24 1
     7    4   46 1
     8    5    6 1
     9    5    9 1
    10    5   25 1
    11    6    7 1
    12    6   26 1
    13    6   27 1
    14    7    8 1
    15    7   30 1
    16    7   31 1
    17    8    9 1
    18    8   32 1
    19    8   33 1
    20    9   28 1
    21    9   29 1
    22   10   11 ar
    23   10   15 ar
    24   11   12 1
    25   11   13 ar
    26   12   35 1
    27   12   36 1
    28   12   37 1
    29   13   14 ar
    30   13   38 1
    31   14   16 ar
    32   14   39 1
    33   15   16 ar
    34   15   34 1
    35   16   17 1
    36   17   18 1
    37   17   20 2
    38   18   19 1
    39   18   23 2
    40   19   40 1
    41   19   41 1
    42   19   42 1
    43   20   21 1
    44   20   22 1
    45   21   43 1
    46   21   44 1
    47   21   45 1
    48   22   23 1
@<TRIPOS>SUBSTRUCTURE
     1 P9M         1 TEMP              0 ****  ****    0 ROOT
