@<TRIPOS>MOLECULE
molecule
   57    60     1     0     0
SMALL
bcc


@<TRIPOS>ATOM
      1 C01          0.0000     0.0000     0.0000 c3         1 P9N      -0.072400
      2 O01          3.4690     0.0020     1.4410 oh         1 P9N      -0.607800
      3 C02          1.5290     0.0000     0.0000 c3         1 P9N      -0.092400
      4 O02         -2.3510     7.4100    -2.4900 o          1 P9N      -0.531100
      5 C03          2.0400     0.0000     1.4420 c3         1 P9N       0.147100
      6 C04          1.5280     1.2480     2.1650 c3         1 P9N      -0.091400
      7 C05         -0.0010     1.2460     2.1650 c3         1 P9N      -0.056700
      8 C06         -0.5110     2.4940     2.8880 c3         1 P9N      -0.076400
      9 C07         -0.0040     3.7460     2.1690 c3         1 P9N      -0.077400
     10 C08         -0.5170     3.7480     0.7280 c3         1 P9N      -0.061700
     11 C09          0.0070     2.4970     0.0040 c3         1 P9N      -0.058700
     12 C10         -0.5090     1.2500     0.7210 c3         1 P9N      -0.054000
     13 C11         -0.4220     2.4750    -1.4580 c3         1 P9N      -0.080400
     14 C12          0.0010     3.7630    -2.1870 c3         1 P9N      -0.065400
     15 C13         -0.6190     4.9270    -1.4390 c3         1 P9N      -0.056000
     16 C14          0.0130     4.9570    -0.0200 c3         1 P9N      -0.063700
     17 C15         -0.4530     6.3220     0.4970 c3         1 P9N      -0.075400
     18 C16         -0.2730     7.2430    -0.7400 c3         1 P9N      -0.076400
     19 C17         -0.3250     6.3210    -1.9830 c3         1 P9N      -0.163700
     20 C18         -2.1310     4.7230    -1.3260 c3         1 P9N      -0.099100
     21 C19         -2.0400     1.2530     0.7180 c3         1 P9N      -0.088100
     22 C20         -1.4250     6.7600    -2.9130 c          1 P9N       0.576100
     23 C21         -1.3710     6.3880    -4.3730 c3         1 P9N      -0.194100
     24 H1          -0.3600    -0.8830     0.5130 hc         1 P9N       0.044700
     25 H2          -0.3600     0.0020    -1.0220 hc         1 P9N       0.044700
     26 H3           3.7840    -0.7530     1.9110 ho         1 P9N       0.399000
     27 H4           1.8890    -0.8860    -0.5090 hc         1 P9N       0.052200
     28 H5           1.8890     0.8860    -0.5090 hc         1 P9N       0.052200
     29 H6           1.6760    -0.8840     1.9510 h1         1 P9N       0.028700
     30 H7           1.8880     1.2440     3.1870 hc         1 P9N       0.054700
     31 H8           1.8880     2.1330     1.6540 hc         1 P9N       0.054700
     32 H9          -0.3620     0.3610     2.6730 hc         1 P9N       0.048700
     33 H10         -1.5950     2.4930     2.8860 hc         1 P9N       0.043200
     34 H11         -0.1470     2.4930     3.9080 hc         1 P9N       0.043200
     35 H12         -0.3680     4.6280     2.6820 hc         1 P9N       0.045200
     36 H13          1.0790     3.7450     2.1650 hc         1 P9N       0.045200
     37 H14         -1.6010     3.7530     0.7200 hc         1 P9N       0.065700
     38 H15          1.0890     2.5000     0.0480 hc         1 P9N       0.061700
     39 H16          0.0390     1.6250    -1.9480 hc         1 P9N       0.046200
     40 H17         -1.4990     2.3780    -1.5090 hc         1 P9N       0.046200
     41 H18         -0.3650     3.7450    -3.2060 hc         1 P9N       0.042700
     42 H19          1.0800     3.8530    -2.1780 hc         1 P9N       0.042700
     43 H20          1.0940     4.9230    -0.0860 hc         1 P9N       0.058700
     44 H21         -1.4940     6.2820     0.7950 hc         1 P9N       0.048700
     45 H22          0.1740     6.6540     1.3150 hc         1 P9N       0.048700
     46 H23          0.6850     7.7450    -0.6910 hc         1 P9N       0.056700
     47 H24         -1.0780     7.9670    -0.7820 hc         1 P9N       0.056700
     48 H25          0.6310     6.3280    -2.4930 hc         1 P9N       0.065700
     49 H26         -2.3330     3.7960    -0.8040 hc         1 P9N       0.045033
     50 H27         -2.5660     5.5490    -0.7760 hc         1 P9N       0.045033
     51 H28         -2.5650     4.6820    -2.3180 hc         1 P9N       0.045033
     52 H29         -2.4040     0.3920     1.2670 hc         1 P9N       0.037033
     53 H30         -2.3990     1.2070    -0.3030 hc         1 P9N       0.037033
     54 H31         -2.4010     2.1600     1.1880 hc         1 P9N       0.037033
     55 H32         -1.6870     7.2330    -4.9730 hc         1 P9N       0.059700
     56 H33         -0.3560     6.1160    -4.6390 hc         1 P9N       0.059700
     57 H34         -2.0300     5.5490    -4.5570 hc         1 P9N       0.059700
@<TRIPOS>BOND
     1     8     7 1
     2     8     9 1
     3    21    12 1
     4     7    12 1
     5     7     6 1
     6     9    10 1
     7    12     1 1
     8    12    11 1
     9     6     5 1
    10     1     3 1
    11     5     3 1
    12     5     2 1
    13    10    11 1
    14    10    16 1
    15    11    13 1
    16    17    16 1
    17    17    18 1
    18    16    15 1
    19    20    15 1
    20    13    14 1
    21    15    14 1
    22    15    19 1
    23    18    19 1
    24    19    22 1
    25    22     4 2
    26    22    23 1
    27     1    24 1
    28     1    25 1
    29     2    26 1
    30     3    27 1
    31     3    28 1
    32     5    29 1
    33     6    30 1
    34     6    31 1
    35     7    32 1
    36     8    33 1
    37     8    34 1
    38     9    35 1
    39     9    36 1
    40    10    37 1
    41    11    38 1
    42    13    39 1
    43    13    40 1
    44    14    41 1
    45    14    42 1
    46    16    43 1
    47    17    44 1
    48    17    45 1
    49    18    46 1
    50    18    47 1
    51    19    48 1
    52    20    49 1
    53    20    50 1
    54    20    51 1
    55    21    52 1
    56    21    53 1
    57    21    54 1
    58    23    55 1
    59    23    56 1
    60    23    57 1
@<TRIPOS>SUBSTRUCTURE
     1 P9N         1 TEMP              0 ****  ****    0 ROOT
