@<TRIPOS>MOLECULE
molecule
   15    15     1     0     0
SMALL
bcc


@<TRIPOS>ATOM
      1 Cl1          0.0000     0.0000     0.0000 cl         1 P9P      -0.062400
      2 C02          1.7360     0.0000     0.0000 ca         1 P9P      -0.009600
      3 C03          2.4280     0.0000     1.1970 ca         1 P9P      -0.054000
      4 C04          3.8100    -0.0000     1.1990 ca         1 P9P      -0.159200
      5 N05          4.5480    -0.0010     2.4810 no         1 P9P       0.295200
      6 O06          3.9370    -0.0010     3.5350 o          1 P9P      -0.199500
      7 O07          5.7660    -0.0010     2.4840 o          1 P9P      -0.199500
      8 C08          4.5040    -0.0010     0.0030 ca         1 P9P      -0.057000
      9 C09          3.8180    -0.0010    -1.1960 ca         1 P9P      -0.157000
     10 C10          2.4320    -0.0060    -1.2010 ca         1 P9P       0.156100
     11 O11          1.7550    -0.0110    -2.3800 oh         1 P9P      -0.505100
     12 H1           1.8860     0.0010     2.1350 ha         1 P9P       0.182000
     13 H2           5.5880     0.0000     0.0060 ha         1 P9P       0.173000
     14 H3           4.3640    -0.0040    -2.1330 ha         1 P9P       0.164000
     15 H4           1.6760    -0.8970    -2.6930 ho         1 P9P       0.435000
@<TRIPOS>BOND
     1     7     5 1
     2     5     6 1
     3     5     4 1
     4     4     3 ar
     5     4     8 ar
     6     3     2 ar
     7     8     9 ar
     8     2     1 1
     9     2    10 ar
    10     9    10 ar
    11    10    11 1
    12     3    12 1
    13     8    13 1
    14     9    14 1
    15    11    15 1
@<TRIPOS>SUBSTRUCTURE
     1 P9P         1 TEMP              0 ****  ****    0 ROOT
