@<TRIPOS>MOLECULE
P9P
   15    15     1     0     0
SMALL
bcc


@<TRIPOS>ATOM
      1 Cl1          0.0000     0.0000     0.0000 cl         1 P9P       0.024600
      2 C02          1.7360     0.0000     0.0000 ca         1 P9P      -0.106600
      3 C03          2.4280     0.0000     1.1970 ca         1 P9P       0.010000
      4 C04          3.8100    -0.0000     1.1990 ca         1 P9P      -0.460200
      5 N05          4.5480    -0.0010     2.4810 no         1 P9P       1.050200
      6 O06          3.9370    -0.0010     3.5350 o          1 P9P      -0.448000
      7 O07          5.7660    -0.0010     2.4840 o          1 P9P      -0.448000
      8 C08          4.5040    -0.0010     0.0030 ca         1 P9P       0.010000
      9 C09          3.8180    -0.0010    -1.1960 ca         1 P9P      -0.154000
     10 C10          2.4320    -0.0060    -1.2010 ca         1 P9P       0.189100
     11 O11          1.7550    -0.0110    -2.3800 oh         1 P9P      -0.491100
     12 H1           1.8860     0.0010     2.1350 ha         1 P9P       0.143000
     13 H2           5.5880     0.0000     0.0060 ha         1 P9P       0.135000
     14 H3           4.3640    -0.0040    -2.1330 ha         1 P9P       0.129000
     15 H4           1.6760    -0.8970    -2.6930 ho         1 P9P       0.417000
@<TRIPOS>BOND
     1     1     2 1   
     2     2     3 ar  
     3     2    10 ar  
     4     3     4 ar  
     5     3    12 1   
     6     4     5 1   
     7     4     8 ar  
     8     5     6 1   
     9     5     7 1   
    10     8     9 ar  
    11     8    13 1   
    12     9    10 ar  
    13     9    14 1   
    14    10    11 1   
    15    11    15 1   
@<TRIPOS>SUBSTRUCTURE
     1 P9P         1 TEMP              0 ****  ****    0 ROOT
