@<TRIPOS>MOLECULE
PA1
   26    26     1     0     0
SMALL
bcc


@<TRIPOS>ATOM
      1 C1           0.0000     0.0000     0.0000 c3         1 PA1       0.397900
      2 O1          -0.4760    -1.1520     0.6980 oh         1 PA1      -0.617800
      3 C2           1.5300     0.0000     0.0000 c3         1 PA1      -0.137500
      4 N2           2.0210    -1.2010    -0.6900 nz         1 PA1       0.089400
      5 C3           2.0320     0.0000     1.4470 c3         1 PA1       0.157100
      6 O3           3.4520     0.1510     1.4690 oh         1 PA1      -0.591800
      7 C4           1.3780     1.1670     2.1930 c3         1 PA1       0.153100
      8 O4           1.7130     1.1000     3.5800 oh         1 PA1      -0.561800
      9 C5          -0.1410     1.0800     2.0270 c3         1 PA1       0.134100
     10 O5          -0.4820     1.1760     0.6460 os         1 PA1      -0.342600
     11 C6          -0.8020     2.2260     2.7960 c3         1 PA1       0.232400
     12 O6          -2.2200     2.1430     2.6490 oh         1 PA1      -0.584800
     13 H1          -0.3580    -0.0190    -1.0220 h2         1 PA1       0.029700
     14 HO1         -1.2360    -1.4950     0.2570 ho         1 PA1       0.439000
     15 H2           1.8900     0.8870    -0.5060 hx         1 PA1       0.116700
     16 HN21         1.5930    -1.2650    -1.5930 hn         1 PA1       0.226467
     17 HN22         1.7910    -2.0130    -0.1530 hn         1 PA1       0.226467
     18 H3           1.7550    -0.9320     1.9240 h1         1 PA1       0.044700
     19 HO3          3.8230    -0.4570     2.0870 ho         1 PA1       0.428000
     20 H4           1.7320     2.1030     1.7760 h1         1 PA1       0.034700
     21 HO4          2.3820     1.7360     3.7730 ho         1 PA1       0.415000
     22 H5          -0.4890     0.1310     2.4160 h1         1 PA1       0.062700
     23 H61         -0.4540     3.1730     2.4030 h1         1 PA1       0.006200
     24 H62         -0.5430     2.1530     3.8450 h1         1 PA1       0.006200
     25 HO6         -2.6300     2.8120     3.1720 ho         1 PA1       0.408000
     26 H23          3.0150    -1.1410    -0.7980 hn         1 PA1       0.226467
@<TRIPOS>BOND
     1     1     2 1   
     2     1     3 1   
     3     1    10 1   
     4     1    13 1   
     5     2    14 1   
     6     3     4 1   
     7     3     5 1   
     8     3    15 1   
     9     4    16 1   
    10     4    17 1   
    11     4    26 1   
    12     5     6 1   
    13     5     7 1   
    14     5    18 1   
    15     6    19 1   
    16     7     8 1   
    17     7     9 1   
    18     7    20 1   
    19     8    21 1   
    20     9    10 1   
    21     9    11 1   
    22     9    22 1   
    23    11    12 1   
    24    11    23 1   
    25    11    24 1   
    26    12    25 1   
@<TRIPOS>SUBSTRUCTURE
     1 PA1         1 TEMP              0 ****  ****    0 ROOT
