@<TRIPOS>MOLECULE
molecule
   26    26     1     0     0
SMALL
bcc


@<TRIPOS>ATOM
      1 C1           0.0000     0.0000     0.0000 c3         1 PA2       0.112500
      2 N1          -0.4910     0.0010    -1.3840 nz         1 PA2      -0.803600
      3 C2           1.5290     0.0000     0.0000 c3         1 PA2       0.119100
      4 O2           2.0060    -1.1650    -0.6750 oh         1 PA2      -0.586800
      5 C3           2.0390     0.0000     1.4420 c3         1 PA2       0.157100
      6 O3           3.4680    -0.0010     1.4410 oh         1 PA2      -0.559800
      7 C4           1.5300     1.2470     2.1640 c3         1 PA2      -0.142400
      8 C5           0.0000     1.2470     2.1640 c3         1 PA2       0.116500
      9 N5          -0.4900     2.4450     2.8590 nz         1 PA2      -0.807600
     10 C6          -0.5110     1.2470     0.7220 c3         1 PA2      -0.135400
     11 H1          -0.3590    -0.8840     0.5140 hx         1 PA2       0.140700
     12 HN11        -0.1190     0.7940    -1.8690 hn         1 PA2       0.472467
     13 HN12        -1.4900     0.0490    -1.3840 hn         1 PA2       0.472467
     14 H2           1.8880     0.8880    -0.5070 h1         1 PA2       0.072700
     15 HO2          2.7340    -0.9330    -1.2280 ho         1 PA2       0.463000
     16 H3           1.6740    -0.8840     1.9510 h1         1 PA2       0.072700
     17 HO3          3.7830    -0.5890     2.1080 ho         1 PA2       0.452000
     18 H41          1.8890     1.2430     3.1860 hc         1 PA2       0.097700
     19 H42          1.8890     2.1310     1.6530 hc         1 PA2       0.097700
     20 H5          -0.3580     0.3590     2.6710 hx         1 PA2       0.130700
     21 HN51        -0.1570     3.2630     2.3880 hn         1 PA2       0.471467
     22 HN52        -0.1550     2.4440     3.8020 hn         1 PA2       0.471467
     23 H61         -1.5940     1.2430     0.7250 hc         1 PA2       0.087200
     24 H62         -0.1490     2.1320     0.2130 hc         1 PA2       0.087200
     25 H13         -0.2190    -0.8500    -1.8350 hn         1 PA2       0.472467
     26 H53         -1.4900     2.4390     2.8690 hn         1 PA2       0.471467
@<TRIPOS>BOND
     1     1     2 1
     2     1     3 1
     3     1    10 1
     4     1    11 1
     5     2    12 1
     6     2    13 1
     7     3     4 1
     8     3     5 1
     9     3    14 1
    10     4    15 1
    11     5     6 1
    12     5     7 1
    13     5    16 1
    14     6    17 1
    15     7     8 1
    16     7    18 1
    17     7    19 1
    18     8     9 1
    19     8    10 1
    20     8    20 1
    21     9    21 1
    22     9    22 1
    23    10    23 1
    24    10    24 1
    25    25     2 1
    26    26     9 1
@<TRIPOS>SUBSTRUCTURE
     1 PA2         1 TEMP              0 ****  ****    0 ROOT
