@<TRIPOS>MOLECULE
molecule
   18    18     1     0     0
SMALL
bcc


@<TRIPOS>ATOM
      1 C1           0.0000     0.0000     0.0000 c3         1 PA3       0.112400
      2 C2           1.5410     0.0000     0.0000 c3         1 PA3       0.109100
      3 O2           2.0410    -1.1740    -0.6420 oh         1 PA3      -0.597800
      4 C3           1.9210     0.0000     1.5010 c3         1 PA3      -0.126400
      5 C4           0.6270    -0.5410     2.1620 c3         1 PA3       0.140100
      6 O4          -0.4270     0.0480     1.3720 os         1 PA3      -0.400600
      7 C5           0.5320    -0.0770     3.6180 c3         1 PA3       0.146400
      8 O5          -0.6050    -0.6810     4.2360 oh         1 PA3      -0.599800
      9 H11         -0.3670    -0.9060    -0.4670 h1         1 PA3       0.057700
     10 H12         -0.3670     0.8700    -0.5300 h1         1 PA3       0.057700
     11 H2           1.9170     0.8930    -0.4830 h1         1 PA3       0.042700
     12 HO2          2.5890    -0.9250    -1.3690 ho         1 PA3       0.404000
     13 H31          2.1360     1.0050     1.8430 hc         1 PA3       0.063700
     14 H32          2.7540    -0.6660     1.6870 hc         1 PA3       0.063700
     15 H4           0.5910    -1.6220     2.0960 h1         1 PA3       0.070700
     16 H51          0.4290     1.0010     3.6470 h1         1 PA3       0.028200
     17 H52          1.4300    -0.3690     4.1490 h1         1 PA3       0.028200
     18 HO5         -0.6440    -0.4240     5.1430 ho         1 PA3       0.401000
@<TRIPOS>BOND
     1     1     2 1
     2     1     6 1
     3     1     9 1
     4     1    10 1
     5     2     3 1
     6     2     4 1
     7     2    11 1
     8     3    12 1
     9     4     5 1
    10     4    13 1
    11     4    14 1
    12     5     6 1
    13     5     7 1
    14     5    15 1
    15     7     8 1
    16     7    16 1
    17     7    17 1
    18     8    18 1
@<TRIPOS>SUBSTRUCTURE
     1 PA3         1 TEMP              0 ****  ****    0 ROOT
