@<TRIPOS>MOLECULE
PA3
   18    18     1     0     0
SMALL
bcc


@<TRIPOS>ATOM
      1 C1         -0.1140   -0.0840    0.2300 c3        1 PA3      0.131400
      2 C2          1.4070    0.0750    0.0900 c3        1 PA3      0.115100
      3 O2          1.8190   -0.7530   -0.9830 oh        1 PA3     -0.589800
      4 C3          1.9930   -0.3760    1.4350 c3        1 PA3     -0.138400
      5 C4          0.7960   -0.7380    2.3090 c3        1 PA3      0.101100
      6 O4         -0.4050   -0.5880    1.5350 os        1 PA3     -0.432600
      7 C5          0.6780    0.1630    3.5410 c3        1 PA3      0.121400
      8 O5         -0.4160   -0.2130    4.3490 oh        1 PA3     -0.596800
      9 H11        -0.6370    0.9000    0.1290 h1        1 PA3      0.063700
     10 H12        -0.5200   -0.8240   -0.5070 h1        1 PA3      0.063700
     11 H2          1.6840    1.1400   -0.1340 h1        1 PA3      0.045700
     12 HO2         2.7780   -0.6680   -1.0510 ho        1 PA3      0.404000
     13 H31         2.6570   -1.2640    1.2930 hc        1 PA3      0.063200
     14 H32         2.5970    0.4420    1.8980 hc        1 PA3      0.063200
     15 H4          0.8180   -1.8150    2.6290 h1        1 PA3      0.076700
     16 H51         1.5810    0.0430    4.1960 h1        1 PA3      0.047200
     17 H52         0.5730    1.2350    3.2260 h1        1 PA3      0.047200
     18 HO5        -1.1950   -0.2410    3.7760 ho        1 PA3      0.415000
@<TRIPOS>BOND
     1    1    2 1   
     2    1    6 1   
     3    1    9 1   
     4    1   10 1   
     5    2    3 1   
     6    2    4 1   
     7    2   11 1   
     8    3   12 1   
     9    4    5 1   
    10    4   13 1   
    11    4   14 1   
    12    5    6 1   
    13    5    7 1   
    14    5   15 1   
    15    7    8 1   
    16    7   16 1   
    17    7   17 1   
    18    8   18 1   
@<TRIPOS>SUBSTRUCTURE
     1 PA3         1 TEMP              0 ****  ****    0 ROOT
