@<TRIPOS>MOLECULE
molecule
   28    28     1     0     0
SMALL
bcc


@<TRIPOS>ATOM
      1 C1           0.0000     0.0000     0.0000 c3         1 PA4       0.098100
      2 O1          -0.4790     1.2330     0.5430 oh         1 PA4      -0.634800
      3 C2           1.5310     0.0000     0.0000 c3         1 PA4       0.118100
      4 O2           2.0150    -1.1660    -0.6690 oh         1 PA4      -0.577800
      5 C3           2.0200     0.0000     1.4520 c3         1 PA4       0.066500
      6 N3           1.6470     1.2650     2.0990 nz         1 PA4      -0.799600
      7 C4           1.3680    -1.1670     2.1980 c3         1 PA4       0.326900
      8 O4           1.8440    -1.1930     3.5450 oh         1 PA4      -0.579800
      9 C5          -0.4990    -1.1670     0.8540 c3         1 PA4       0.106100
     10 O5          -0.0480    -1.0090     2.1970 os         1 PA4      -0.430600
     11 C6          -2.0280    -1.1980     0.8310 c3         1 PA4       0.107800
     12 N6          -2.5090    -2.3190     1.6470 nz         1 PA4      -0.806600
     13 H1          -0.3600    -0.1170    -1.0150 h1         1 PA4       0.102700
     14 HO1         -0.8870     1.7390    -0.1400 ho         1 PA4       0.461000
     15 H2           1.8920     0.8890    -0.5030 h1         1 PA4       0.086700
     16 HO2          2.6110    -0.9110    -1.3530 ho         1 PA4       0.461000
     17 H3           3.0970    -0.1180     1.4690 hx         1 PA4       0.144700
     18 HN31         2.4710     1.7200     2.4410 hn         1 PA4       0.471800
     19 HN32         1.0270     1.0800     2.8610 hn         1 PA4       0.471800
     20 H4           1.6250    -2.0960     1.7030 h2         1 PA4       0.096700
     21 HO4          2.2340    -2.0330     3.7250 ho         1 PA4       0.466000
     22 H5          -0.1100    -2.0950     0.4530 h1         1 PA4       0.096700
     23 H61         -2.3720    -1.3210    -0.1890 hx         1 PA4       0.131200
     24 H62         -2.4140    -0.2680     1.2320 hx         1 PA4       0.131200
     25 HN61        -3.4870    -2.4550     1.4850 hn         1 PA4       0.470467
     26 HN62        -2.0110    -3.1510     1.3990 hn         1 PA4       0.470467
     27 H33          1.1870     1.8560     1.4350 hn         1 PA4       0.471800
     28 H63         -2.3680    -2.1110     2.6160 hn         1 PA4       0.470467
@<TRIPOS>BOND
     1     1     2 1
     2     1     3 1
     3     1     9 1
     4     1    13 1
     5     2    14 1
     6     3     4 1
     7     3     5 1
     8     3    15 1
     9     4    16 1
    10     5     6 1
    11     5     7 1
    12     5    17 1
    13     6    18 1
    14     6    19 1
    15     7     8 1
    16     7    10 1
    17     7    20 1
    18     8    21 1
    19     9    10 1
    20     9    11 1
    21     9    22 1
    22    11    12 1
    23    11    23 1
    24    11    24 1
    25    12    25 1
    26    12    26 1
    27    27     6 1
    28    28    12 1
@<TRIPOS>SUBSTRUCTURE
     1 PA4         1 TEMP              0 ****  ****    0 ROOT
