@<TRIPOS>MOLECULE
PA6
   33    33     1     0     0
SMALL
bcc


@<TRIPOS>ATOM
      1 O32         0.9680   -2.0340    0.3260 o         1 PA6     -0.586000
      2 C31         1.7310   -1.0670    0.1980 c         1 PA6      0.625100
      3 C32         2.3330   -0.2560    1.3140 c3        1 PA6     -0.136400
      4 C33         1.3310   -0.0290    2.4240 c3        1 PA6     -0.077400
      5 C34         1.9740    0.6600    3.6080 c3        1 PA6     -0.079400
      6 C35         0.9770    0.9080    4.7100 c3        1 PA6     -0.089100
      7 O31         2.1310   -0.6480   -1.0160 os        1 PA6     -0.425900
      8 C3          1.6220   -1.3440   -2.1850 c3        1 PA6      0.128400
      9 C2          2.4390   -0.8150   -3.3770 c3        1 PA6      0.168100
     10 O21         2.6310   -1.9120   -4.2280 os        1 PA6     -0.570600
     11 C21         2.8790   -1.6250   -5.6620 c3        1 PA6      0.792400
     12 O22         3.8120   -0.7430   -5.7770 o         1 PA6     -0.875500
     13 C1          1.7230    0.3830   -4.0300 c3        1 PA6      0.156400
     14 O11         0.4770    0.0550   -4.5520 os        1 PA6     -0.585200
     15 P           0.4630   -0.2120   -6.2030 p5        1 PA6      1.485800
     16 O13         0.8150    1.0790   -6.8380 o         1 PA6     -0.869000
     17 O14        -0.8250   -0.8730   -6.5230 o         1 PA6     -0.869000
     18 O12         1.6390   -1.3230   -6.2550 os        1 PA6     -0.724200
     19 H321        2.7000    0.7220    0.9070 hc        1 PA6      0.065200
     20 H322        3.2220   -0.8230    1.6990 hc        1 PA6      0.065200
     21 H331        0.4820    0.5950    2.0380 hc        1 PA6      0.054200
     22 H332        0.8980   -1.0150    2.7400 hc        1 PA6      0.054200
     23 H341        2.4200    1.6350    3.2760 hc        1 PA6      0.033700
     24 H342        2.8160    0.0280    3.9970 hc        1 PA6      0.033700
     25 H351        0.1450    1.5590    4.3480 hc        1 PA6      0.026367
     26 H352        1.4690    1.4130    5.5760 hc        1 PA6      0.026367
     27 H353        0.5370   -0.0550    5.0660 hc        1 PA6      0.026367
     28 H31         0.5360   -1.0970   -2.2910 h1        1 PA6      0.059700
     29 H32         1.7630   -2.4430   -2.0420 h1        1 PA6      0.059700
     30 H2          3.4420   -0.4540   -3.0070 h1        1 PA6      0.006700
     31 H21         3.0940   -2.6900   -6.0180 h3        1 PA6     -0.035300
     32 H11         2.3900    0.7960   -4.8410 h1        1 PA6      0.028200
     33 H12         1.5670    1.1630   -3.2290 h1        1 PA6      0.028200
@<TRIPOS>BOND
     1    1    2 2   
     2    2    3 1   
     3    2    7 1   
     4    3    4 1   
     5    3   19 1   
     6    3   20 1   
     7    4    5 1   
     8    4   21 1   
     9    4   22 1   
    10    5    6 1   
    11    5   23 1   
    12    5   24 1   
    13    6   25 1   
    14    6   26 1   
    15    6   27 1   
    16    7    8 1   
    17    8    9 1   
    18    8   28 1   
    19    8   29 1   
    20    9   10 1   
    21    9   13 1   
    22    9   30 1   
    23   10   11 1   
    24   11   12 1   
    25   11   18 1   
    26   11   31 1   
    27   13   14 1   
    28   13   32 1   
    29   13   33 1   
    30   14   15 1   
    31   15   16 1   
    32   15   17 1   
    33   15   18 1   
@<TRIPOS>SUBSTRUCTURE
     1 PA6         1 TEMP              0 ****  ****    0 ROOT
