@<TRIPOS>MOLECULE
molecule
   33    32     1     0     0
SMALL
bcc


@<TRIPOS>ATOM
      1 O32          0.0000     0.0000     0.0000 o          1 PA6      -0.534000
      2 C31          1.2230     0.0000     0.0000 c          1 PA6       0.634100
      3 C32          2.0950     0.0000     1.2350 c3         1 PA6      -0.143400
      4 C33          1.2690     0.0230     2.5190 c3         1 PA6      -0.075400
      5 C34          2.1630    -0.0170     3.7580 c3         1 PA6      -0.084400
      6 C35          1.3420    -0.0330     5.0380 c3         1 PA6      -0.089100
      7 O31          2.0250    -0.0000    -1.1070 os         1 PA6      -0.429900
      8 C3           1.3400    -0.0010    -2.3640 c3         1 PA6       0.133400
      9 C2           2.3690    -0.0020    -3.4860 c3         1 PA6       0.131100
     10 O21          3.1780    -1.1720    -3.3440 os         1 PA6      -0.408900
     11 C21          4.1670    -1.3110    -4.2640 c          1 PA6       0.645900
     12 O22          4.4390    -0.5570    -5.1850 o          1 PA6      -0.537000
     13 C1           1.6990    -0.0330    -4.8550 c3         1 PA6       0.182400
     14 O11          0.9090    -1.2100    -4.9800 os         1 PA6      -0.580200
     15 P            0.1040    -1.4490    -6.3610 p5         1 PA6       1.158900
     16 O13         -0.7480    -0.0840    -6.5170 o          1 PA6      -0.906167
     17 O14         -0.7060    -2.7120    -6.4140 o          1 PA6      -0.906167
     18 O12          1.2430    -1.3100    -7.5000 o          1 PA6      -0.906167
     19 H321         2.7360     0.8730     1.2130 hc         1 PA6       0.064700
     20 H322         2.7130    -0.8900     1.2300 hc         1 PA6       0.064700
     21 H331         0.6740     0.9280     2.5410 hc         1 PA6       0.052200
     22 H332         0.6080    -0.8360     2.5310 hc         1 PA6       0.052200
     23 H341         2.7780    -0.9080     3.7210 hc         1 PA6       0.034200
     24 H342         2.8040     0.8560     3.7590 hc         1 PA6       0.034200
     25 H351         0.7110    -0.9130     5.0510 hc         1 PA6       0.028700
     26 H352         2.0070    -0.0520     5.8930 hc         1 PA6       0.028700
     27 H353         0.7240     0.8560     5.0810 hc         1 PA6       0.028700
     28 H31          0.7200     0.8830    -2.4400 h1         1 PA6       0.079700
     29 H32          0.7200    -0.8870    -2.4390 h1         1 PA6       0.079700
     30 H2           2.9920     0.8810    -3.4070 h1         1 PA6       0.021700
     31 H21          4.7800    -2.1980    -4.1570 h5         1 PA6       0.019200
     32 H11          1.0660     0.8390    -4.9660 h1         1 PA6       0.062700
     33 H12          2.4590    -0.0260    -5.6280 h1         1 PA6       0.062700
@<TRIPOS>BOND
     1     1     2 2
     2     2     7 1
     3     2     3 1
     4     3     4 1
     5     3    19 1
     6     3    20 1
     7     4     5 1
     8     4    21 1
     9     4    22 1
    10     5     6 1
    11     5    23 1
    12     5    24 1
    13     6    25 1
    14     6    26 1
    15     6    27 1
    16     7     8 1
    17     8     9 1
    18     8    28 1
    19     8    29 1
    20     9    10 1
    21     9    13 1
    22     9    30 1
    23    10    11 1
    24    11    12 2
    25    11    31 1
    26    13    14 1
    27    13    32 1
    28    13    33 1
    29    14    15 1
    30    15    17 1
    31    15    16 1
    32    15    18 1
@<TRIPOS>SUBSTRUCTURE
     1 PA6         1 TEMP              0 ****  ****    0 ROOT
