@<TRIPOS>MOLECULE
molecule
   41    43     1     0     0
SMALL
bcc


@<TRIPOS>ATOM
      1 C5'          0.0000     0.0000     0.0000 c          1 PA7       0.658100
      2 O5'         -0.6070    -0.0260     1.0490 o          1 PA7      -0.581100
      3 N5'         -0.6730     0.0290    -1.1680 ns         1 PA7      -0.584900
      4 C51         -2.1380     0.0290    -1.1680 c3         1 PA7       0.113000
      5 C52         -2.6470     0.0650    -2.6110 c3         1 PA7      -0.103400
      6 C53         -4.1770     0.0640    -2.6120 c3         1 PA7      -0.089100
      7 C4'          1.5070     0.0000     0.0000 c3         1 PA7       0.068100
      8 O4'          2.0150     0.0000     1.3520 os         1 PA7      -0.374600
      9 C3'          2.0540    -1.3220    -0.5950 c3         1 PA7       0.098100
     10 O3'          2.1560    -1.2430    -2.0180 oh         1 PA7      -0.581800
     11 C2'          3.4570    -1.4130     0.0560 c3         1 PA7       0.074100
     12 O2'          4.4580    -0.9310    -0.8430 oh         1 PA7      -0.569800
     13 C1'          3.3600    -0.5020     1.2950 c3         1 PA7       0.250800
     14 N9           3.6570    -1.2700     2.5060 na         1 PA7      -0.261000
     15 C8           2.7470    -1.8750     3.3210 cc         1 PA7       0.434700
     16 N7           3.3570    -2.4700     4.3050 nd         1 PA7      -0.589100
     17 C5           4.6940    -2.2840     4.1850 ca         1 PA7      -0.209200
     18 C6           5.8170    -2.6810     4.9290 ca         1 PA7       0.788200
     19 N6           5.6740    -3.4430     6.0760 nv         1 PA7      -0.983500
     20 N1           7.0210    -2.3080     4.5060 nb         1 PA7      -0.836000
     21 C2           7.1670    -1.5820     3.4130 ca         1 PA7       0.741900
     22 N3           6.1440    -1.1880     2.6850 nb         1 PA7      -0.797000
     23 C4           4.9030    -1.5170     3.0260 ca         1 PA7       0.471800
     24 H5'         -0.1730     0.0950    -2.0320 hn         1 PA7       0.324500
     25 H511        -2.5000    -0.8680    -0.6800 h1         1 PA7       0.054700
     26 H512        -2.5000     0.9000    -0.6360 h1         1 PA7       0.054700
     27 H521        -2.2860     0.9620    -3.1000 hc         1 PA7       0.045200
     28 H522        -2.2850    -0.8070    -3.1440 hc         1 PA7       0.045200
     29 H531        -4.5380     0.0920    -3.6340 hc         1 PA7       0.039033
     30 H532        -4.5390     0.9340    -2.0780 hc         1 PA7       0.039033
     31 H533        -4.5380    -0.8340    -2.1260 hc         1 PA7       0.039033
     32 H4'          1.8940     0.8500    -0.5490 h1         1 PA7       0.093700
     33 H3'          1.4380    -2.1610    -0.2930 h1         1 PA7       0.062700
     34 H2           2.0910    -2.1080    -2.3870 ho         1 PA7       0.410000
     35 H2'          3.6680    -2.4330     0.3550 h1         1 PA7       0.062700
     36 H1           5.0120    -1.6460    -1.1090 ho         1 PA7       0.414000
     37 H1'          4.0550     0.3230     1.1970 h2         1 PA7       0.113700
     38 H8           1.6740    -1.8620     3.1720 h5         1 PA7       0.096800
     39 HN61         6.4800    -3.6890     6.6170 hn         1 PA7       0.450800
     40 HN62         4.7660    -3.7530     6.3610 hn         1 PA7       0.450800
     41 H3           8.1660    -1.3000     3.1040 h5         1 PA7       0.061100
@<TRIPOS>BOND
     1     1     2 2
     2     1     3 1
     3     1     7 1
     4     3     4 1
     5     3    24 1
     6     4     5 1
     7     4    25 1
     8     4    26 1
     9     5     6 1
    10     5    27 1
    11     5    28 1
    12     6    29 1
    13     6    30 1
    14     6    31 1
    15     7     8 1
    16     7     9 1
    17     7    32 1
    18     8    13 1
    19     9    10 1
    20     9    11 1
    21     9    33 1
    22    10    34 1
    23    11    12 1
    24    11    13 1
    25    11    35 1
    26    12    36 1
    27    13    14 1
    28    13    37 1
    29    14    15 1
    30    14    23 1
    31    15    16 2
    32    15    38 1
    33    16    17 1
    34    17    18 ar
    35    17    23 ar
    36    18    19 1
    37    18    20 ar
    38    19    39 1
    39    19    40 1
    40    20    21 ar
    41    21    22 ar
    42    21    41 1
    43    22    23 ar
@<TRIPOS>SUBSTRUCTURE
     1 PA7         1 TEMP              0 ****  ****    0 ROOT
